data_image0
_chemical_formula_sum              "C400 H320"
_cell_length_a       28.862685999696907
_cell_length_b       29.89836981057215
_cell_length_c       30.56160674903398
_cell_angle_alpha    79.44019999950541
_cell_angle_beta     90.26019999998843
_cell_angle_gamma    90.38479999965656

_space_group_name_H-M_alt    "P 1"
_space_group_IT_number       1

loop_
  _space_group_symop_operation_xyz
  'x, y, z'

loop_
  _atom_site_type_symbol
  _atom_site_label
  _atom_site_symmetry_multiplicity
  _atom_site_fract_x
  _atom_site_fract_y
  _atom_site_fract_z
  _atom_site_occupancy
  C   C1        1.0  0.834789587821437  0.20943613769759126  0.15214061983955954  1.0000
  C   C2        1.0  0.8556606584215781  0.18098828175037823  0.18749893746600954  1.0000
  C   C3        1.0  0.9016916831395221  0.16901549120509302  0.18593622164885634  1.0000
  C   C4        1.0  0.9274192861200936  0.18405084058880822  0.14809985945186205  1.0000
  C   C5        1.0  0.9079862206758551  0.21720361613453368  0.11533508424229333  1.0000
  C   C6        1.0  0.8625418515886014  0.22775089606475796  0.1163119896572762  1.0000
  H   H1        1.0  0.8355996306095884  0.16699794008598778  0.21699715398983996  1.0000
  H   H2        1.0  0.917479336029287  0.15059743981575605  0.21743950741284243  1.0000
  H   H3        1.0  0.9263678019230825  0.23170272851348434  0.0845723826515055  1.0000
  H   H4        1.0  0.8473857555784028  0.2518296864330653  0.08907247164999561  1.0000
  C   C7        1.0  0.9602873813066759  0.14119346992688392  0.06932733262866203  1.0000
  C   C8        1.0  0.989338989226076  0.16573578089514734  0.0917598768699519  1.0000
  C   C9        1.0  0.023948029850258085  0.19097559513614393  0.06705931440116857  1.0000
  C   C10       1.0  0.021675146680382874  0.19944984754944828  0.021226773353277297  1.0000
  C   C11       1.0  0.9888833766566434  0.17787437472423823  0.9996787943672454  1.0000
  C   C12       1.0  0.9597354965585294  0.14752388508100325  0.023935114638174795  1.0000
  C   C13       1.0  0.9798287261365364  0.16762939936856455  0.14334148132150595  1.0000
  C   C14       1.0  0.9905580180952235  0.11641434825197522  0.16634019800262065  1.0000
  C   C15       1.0  0.035846755059414086  0.1043868862373013  0.17723194447433602  1.0000
  C   C16       1.0  0.04642132356406012  0.06208549057711066  0.19980328583932194  1.0000
  C   C17       1.0  0.012082213633546437  0.029651333756265164  0.20967951666500229  1.0000
  C   C18       1.0  0.967281811608101  0.03932287693978709  0.19729428651457206  1.0000
  C   C19       1.0  0.9567013915002555  0.08212160111499789  0.17495527222953777  1.0000
  C   C20       1.0  0.011646131331070958  0.2504572999243093  0.14165694356844688  1.0000
  C   C21       1.0  0.03154716341188507  0.2832352650354677  0.1624042843630389  1.0000
  C   C22       1.0  0.04760600943006628  0.2733187473004034  0.20574759718725352  1.0000
  C   C23       1.0  0.04372920675211178  0.22873828865606075  0.22676254682465516  1.0000
  C   C24       1.0  0.02114057473605285  0.1961143476622635  0.20841969145351671  1.0000
  C   C25       1.0  0.006982252026543308  0.20579039418072637  0.1636245008030141  1.0000
  C   C26       1.0  0.07415508573668035  0.3110384305187251  0.2252277901403328  1.0000
  C   C27       1.0  0.20554092580379424  0.3058206483839481  0.15617372475041044  1.0000
  C   C28       1.0  0.17204544254252727  0.3360240461385399  0.13885004634032064  1.0000
  C   C29       1.0  0.13185282689125294  0.33938568291434246  0.16095640069858386  1.0000
  C   C30       1.0  0.12235492269507481  0.3112574350021031  0.20125483081879056  1.0000
  C   C31       1.0  0.1544796539613905  0.27739610145414384  0.2170720445242083  1.0000
  C   C32       1.0  0.19704591921350412  0.2761939730290607  0.19609171095602584  1.0000
  C   C33       1.0  0.07674608701647166  0.3041388100718485  0.27767146785417157  1.0000
  C   C34       1.0  0.039420237511251344  0.28601453090942025  0.3040063082062823  1.0000
  C   C35       1.0  0.040585211458026786  0.28463001622373973  0.3495590582177734  1.0000
  C   C36       1.0  0.07640660534315034  0.3034531108152002  0.36924361911797343  1.0000
  C   C37       1.0  0.11269501661479378  0.3219660906202654  0.3435478446591394  1.0000
  C   C38       1.0  0.11316639602733627  0.3228146336049561  0.298767299268691  1.0000
  C   C39       1.0  0.07419420998154913  0.39981523116944034  0.21804528862417763  1.0000
  C   C40       1.0  0.05148962889728471  0.4387962369222954  0.22126990861066967  1.0000
  C   C41       1.0  0.004311288265680918  0.4393529048118439  0.2254408121047584  1.0000
  C   C42       1.0  0.9789679497226932  0.40048919896434837  0.22319709169508223  1.0000
  C   C43       1.0  0.0014507721276155303  0.3613494813636216  0.21840909019779817  1.0000
  C   C44       1.0  0.04999422716697563  0.35916130471913194  0.21787720098037308  1.0000
  H   H5        1.0  0.9361340626024883  0.11634712734075833  0.08632715108346112  1.0000
  H   H6        1.0  0.050399192377863195  0.2076158147023025  0.08327294866850955  1.0000
  H   H7        1.0  0.04682336684636418  0.22256726897046772  0.002430650511927799  1.0000
  H   H8        1.0  0.9359430349930364  0.1270488378563661  0.007341569011153583  1.0000
  H   H9        1.0  0.06464930454250352  0.12868680871036248  0.1690512353467554  1.0000
  H   H10       1.0  0.0813321122833465  0.053999415430475706  0.20897388140784262  1.0000
  H   H11       1.0  0.9407243508489107  0.013401659540590805  0.20422016313295832  1.0000
  H   H12       1.0  0.9211401489784192  0.08929320847123305  0.1639097505272527  1.0000
  H   H13       1.0  0.9988339064167564  0.2608779052313674  0.10781707313216787  1.0000
  H   H14       1.0  0.03719496256401841  0.31648943524544243  0.14428576774818616  1.0000
  H   H15       1.0  0.0555447083193889  0.2185347132789614  0.26182230085409  1.0000
  H   H16       1.0  0.017953608004687406  0.16242744994743563  0.2282467107924264  1.0000
  H   H17       1.0  0.1776797640374245  0.3574627424951468  0.1069806290749781  1.0000
  H   H18       1.0  0.10740758453386107  0.3636330633347468  0.14493115773103174  1.0000
  H   H19       1.0  0.14675482129162476  0.25183102339608077  0.24599310466317323  1.0000
  H   H20       1.0  0.2228678818632064  0.25248693798466976  0.2098642466497776  1.0000
  H   H21       1.0  0.009058506681246907  0.27355588835600025  0.2879284754412626  1.0000
  H   H22       1.0  0.013167221932325621  0.2687736030712318  0.37037529830398425  1.0000
  H   H23       1.0  0.14262348919339757  0.3375819150408285  0.35601628651442335  1.0000
  H   H24       1.0  0.14323936791677944  0.3384761825990197  0.27968785388618733  1.0000
  H   H25       1.0  0.1114930529609106  0.4019472074114279  0.21578792149490547  1.0000
  H   H26       1.0  0.0720479244357571  0.46985421504708474  0.22099098297599995  1.0000
  H   H27       1.0  0.9415941850873807  0.40028893626413575  0.2266770051920655  1.0000
  H   H28       1.0  0.9797508489839608  0.33058263663984017  0.22199085482152242  1.0000
  C   C45       1.0  0.9926485602453062  0.04021791728486779  0.7757694104786153  1.0000
  C   C46       1.0  0.959919335378764  0.052628516594413144  0.7432070061352509  1.0000
  C   C47       1.0  0.9443192400474522  0.09662760936366356  0.7333880249625099  1.0000
  C   C48       1.0  0.9560766058615008  0.1274718746188988  0.7604484713809453  1.0000
  C   C49       1.0  0.9896631822457821  0.11458137236097674  0.7922819411897909  1.0000
  C   C50       1.0  0.00847096028000546  0.07171417106275424  0.7989721622600314  1.0000
  H   H29       1.0  0.9474692753512066  0.027216896591154782  0.7244477593930243  1.0000
  H   H30       1.0  0.9231502533376369  0.10577736386510148  0.7043438115003614  1.0000
  H   H31       1.0  0.002208397978864477  0.1376723905923059  0.8133145317086214  1.0000
  H   H32       1.0  0.03254554122924854  0.06371881969288506  0.8260692218286023  1.0000
  C   C51       1.0  0.909559721172355  0.15763070154434075  0.8392865690275699  1.0000
  C   C52       1.0  0.9259635329475904  0.1899608781293248  0.8037385287140535  1.0000
  C   C53       1.0  0.9368404871167844  0.2328597249595919  0.8111177427004829  1.0000
  C   C54       1.0  0.9360636692548849  0.242245304486653  0.8528667192596999  1.0000
  C   C55       1.0  0.9271760545100942  0.20839562800716707  0.8894432562452086  1.0000
  C   C56       1.0  0.9128619540245694  0.16622159702478287  0.8816979107574228  1.0000
  C   C57       1.0  0.9316458729987525  0.17640294398050402  0.7549598273287926  1.0000
  C   C58       1.0  0.8775419552070656  0.18042129094639808  0.7413330785419447  1.0000
  C   C59       1.0  0.8569499693884092  0.22113583410500345  0.7232095692248007  1.0000
  C   C60       1.0  0.8112082364869333  0.22417647243959665  0.7063508778214336  1.0000
  C   C61       1.0  0.785153999487277  0.18495192701621638  0.7098158132115432  1.0000
  C   C62       1.0  0.8026452182193708  0.1446938347967326  0.7330684920158715  1.0000
  C   C63       1.0  0.8476488564249207  0.14321437846308602  0.7490850809661189  1.0000
  C   C64       1.0  0.009649323571456262  0.22058339421529197  0.7364269164237683  1.0000
  C   C65       1.0  0.0381470084980542  0.24960481836648377  0.7085742945751254  1.0000
  C   C66       1.0  0.025605755309319227  0.2671857399464252  0.6649081203360784  1.0000
  C   C67       1.0  0.9835750702422884  0.2515294881450819  0.6499233565260173  1.0000
  C   C68       1.0  0.9563368547427371  0.22069724447133668  0.6775330001964872  1.0000
  C   C69       1.0  0.9664255731489815  0.20746074064080203  0.722344167494322  1.0000
  C   C70       1.0  0.05748282773680205  0.304015275360051  0.6350118190162276  1.0000
  C   C71       1.0  0.025445851766192122  0.42498080685939255  0.6924245668971122  1.0000
  C   C72       1.0  0.06528719009507714  0.3996650232542507  0.7062610091801916  1.0000
  C   C73       1.0  0.07346617045476003  0.36078238019647996  0.6898683033240053  1.0000
  C   C74       1.0  0.04556829199558731  0.3474553687964941  0.6570729062070504  1.0000
  C   C75       1.0  0.006239918623789599  0.37279335345712444  0.645153661603801  1.0000
  C   C76       1.0  0.9947251771486944  0.40979357582401477  0.6636499593586899  1.0000
  C   C77       1.0  0.049858091938760146  0.3103120102600982  0.5818761527648252  1.0000
  C   C78       1.0  0.04666141413928894  0.2731089088265557  0.5625344240886225  1.0000
  C   C79       1.0  0.04195189713663996  0.27759860414887216  0.5170642200883463  1.0000
  C   C80       1.0  0.04388011102260504  0.32063885041013523  0.4891882989623444  1.0000
  C   C81       1.0  0.047737422944442595  0.35818209310343574  0.5096783491655286  1.0000
  C   C82       1.0  0.051329628199411004  0.3528489996984392  0.5548656333693021  1.0000
  C   C83       1.0  0.14406207737774587  0.32640951227545956  0.6235053044690528  1.0000
  C   C84       1.0  0.18931358835929848  0.31631951690331706  0.6177137698112326  1.0000
  C   C85       1.0  0.20348917048794532  0.2719949513156142  0.625535670067484  1.0000
  C   C86       1.0  0.17074246378528982  0.23758981163467754  0.6382204623553878  1.0000
  C   C87       1.0  0.12506367340140861  0.24824313470619483  0.641522302803984  1.0000
  C   C88       1.0  0.11089176433178771  0.2923916702893734  0.6359437901105894  1.0000
  H   H33       1.0  0.8963731948756379  0.12546981261614107  0.8332287569142179  1.0000
  H   H34       1.0  0.9446796772756886  0.25993609429459674  0.7831852376151804  1.0000
  H   H35       1.0  0.9467006442192968  0.273637527532647  0.8594104877293978  1.0000
  H   H36       1.0  0.9033632360216117  0.13922788245188344  0.908801627262382  1.0000
  H   H37       1.0  0.8769959044783271  0.2517260373720791  0.7198744440942629  1.0000
  H   H38       1.0  0.7957769949051565  0.25590956035753715  0.6900746683520427  1.0000
  H   H39       1.0  0.7813766564091794  0.11503740466868917  0.734416521634502  1.0000
  H   H40       1.0  0.8599349164432795  0.11124857033076084  0.7644126770001772  1.0000
  H   H41       1.0  0.01937779430484302  0.21001110856941957  0.7715855259585693  1.0000
  H   H42       1.0  0.06922650826468013  0.2617331083130637  0.7212158167765051  1.0000
  H   H43       1.0  0.971679134452895  0.263637202844405  0.6164422949610676  1.0000
  H   H44       1.0  0.9242915033338525  0.20979793959396725  0.6636532878268839  1.0000
  H   H45       1.0  0.08750978040869542  0.4114259803039479  0.728828023536525  1.0000
  H   H46       1.0  0.10458096766201974  0.3426503135858753  0.7003696204765469  1.0000
  H   H47       1.0  0.981932008314062  0.3615753631834549  0.6222770997054116  1.0000
  H   H48       1.0  0.9644032940509716  0.4279775869980112  0.65229988281664  1.0000
  H   H49       1.0  0.04995377889221602  0.239013921406236  0.582295539757288  1.0000
  H   H50       1.0  0.036755915332533  0.24705533198502153  0.5024522447160301  1.0000
  H   H51       1.0  0.04828287226953125  0.39269337127793946  0.4901768540160068  1.0000
  H   H52       1.0  0.06007138579946376  0.38198088211981424  0.5689949808534667  1.0000
  H   H53       1.0  0.13381922679365085  0.3620781349606773  0.613646381677982  1.0000
  H   H54       1.0  0.21431251132224383  0.3440183393324676  0.607368890663816  1.0000
  H   H55       1.0  0.1807265638541115  0.20180305162876613  0.6452368733086549  1.0000
  H   H56       1.0  0.10121320717704849  0.2203895995601483  0.6494074439559241  1.0000
  C   C89       1.0  0.8487020040393805  0.7517665310498212  0.3852369087908617  1.0000
  C   C90       1.0  0.8648568168239431  0.7811273585036083  0.3490364887112919  1.0000
  C   C91       1.0  0.9113192827960812  0.7912578905839596  0.34541511531605723  1.0000
  C   C92       1.0  0.9422281750616572  0.776462526839254  0.3798880604028635  1.0000
  C   C93       1.0  0.9254472636227665  0.7439010452313408  0.41444421719452346  1.0000
  C   C94       1.0  0.8790756036308562  0.7308786846162277  0.41591540013633754  1.0000
  H   H57       1.0  0.8401214867912413  0.7970157779863033  0.32440648976822456  1.0000
  H   H58       1.0  0.923965051188792  0.8136213035219846  0.31587662432707764  1.0000
  H   H59       1.0  0.9471442066243574  0.7296212030962196  0.44253981722133934  1.0000
  H   H60       1.0  0.86729459101964  0.7059760874459323  0.44451027039227575  1.0000
  C   C95       1.0  0.9898023070377798  0.804640853429856  0.45989445038563476  1.0000
  C   C96       1.0  0.017252119829792162  0.7910733386334916  0.4266330677214989  1.0000
  C   C97       1.0  0.06082135874375876  0.7739387838736286  0.43802308588187844  1.0000
  C   C98       1.0  0.07463603141873526  0.7658278388292155  0.48166596084356655  1.0000
  C   C99       1.0  0.046153394311707396  0.7762791162661944  0.51456454047454  1.0000
  C   C100      1.0  0.004684209485708719  0.7978207812745972  0.502984799627094  1.0000
  C   C101      1.0  0.9949053127598692  0.794503601697322  0.3776047312216769  1.0000
  C   C102      1.0  0.0050206951532790626  0.8466915436106435  0.3569083159904554  1.0000
  C   C103      1.0  0.04698288556624826  0.8623483358646148  0.33817569699378214  1.0000
  C   C104      1.0  0.05297230382478195  0.9073686075803689  0.31887158000817334  1.0000
  C   C105      1.0  0.017459741834638578  0.9384225984716141  0.3171317896830914  1.0000
  C   C106      1.0  0.9764154945263167  0.9238450726262061  0.3373702076907979  1.0000
  C   C107      1.0  0.971017293149812  0.8793974124659958  0.35781365933926407  1.0000
  C   C108      1.0  0.025423361224637488  0.7143816363208733  0.369722918537931  1.0000
  C   C109      1.0  0.04410316929722016  0.6837646813231671  0.34712927643604424  1.0000
  C   C110      1.0  0.055131759747941135  0.6962662964397907  0.3027058756828281  1.0000
  C   C111      1.0  0.046619927309249416  0.7414669438477723  0.2825280357962551  1.0000
  C   C112      1.0  0.02614736536401257  0.77163619958467  0.3058868927359768  1.0000
  C   C113      1.0  0.01729551848043207  0.7595419318875141  0.3500283722331484  1.0000
  C   C114      1.0  0.0762455278533103  0.6608145553522684  0.27538880436662383  1.0000
  C   C115      1.0  0.22103458440034435  0.6551589519472028  0.3213336479313857  1.0000
  C   C116      1.0  0.18884650973629194  0.625327977808347  0.3430618883027936  1.0000
  C   C117      1.0  0.14214471038837592  0.6289336196251363  0.3313653182217328  1.0000
  C   C118      1.0  0.12841101799243734  0.6590897277865236  0.2933475545081574  1.0000
  C   C119      1.0  0.16077215269020856  0.6895135906775117  0.272382531893668  1.0000
  C   C120      1.0  0.20585312208530834  0.6877122975832267  0.286285210693811  1.0000
  C   C121      1.0  0.0688666492307541  0.6715764925084569  0.22268184481862788  1.0000
  C   C122      1.0  0.026078784136958518  0.6865407866906046  0.20452138950452886  1.0000
  C   C123      1.0  0.017160002507322508  0.6920452600280017  0.1602584209182707  1.0000
  C   C124      1.0  0.05015530942194826  0.6807859999989645  0.13183430108069233  1.0000
  C   C125      1.0  0.09225744329617755  0.663592662714826  0.14878818667441218  1.0000
  C   C126      1.0  0.10086861065038909  0.6584638852107564  0.19404536871026273  1.0000
  C   C127      1.0  0.0733838361861792  0.5717591369331857  0.2798266510098833  1.0000
  C   C128      1.0  0.050488745538791666  0.5305084359954875  0.2846482700359283  1.0000
  C   C129      1.0  0.003315048522665549  0.5297125820382224  0.28775439655470864  1.0000
  C   C130      1.0  0.9801753281921018  0.567098933513077  0.2946176979710448  1.0000
  C   C131      1.0  0.0036254141836185604  0.6075518289565156  0.2921626198310402  1.0000
  C   C132      1.0  0.05124701669809149  0.6116016207639586  0.2846662437641767  1.0000
  H   H61       1.0  0.956180427273485  0.8204633797774152  0.45240206848060427  1.0000
  H   H62       1.0  0.08306660402033836  0.7625942793425947  0.4143576770214756  1.0000
  H   H63       1.0  0.10865765102793085  0.7506123220198144  0.4896675983823019  1.0000
  H   H64       1.0  0.9837152196386625  0.806267844366392  0.5292264428697686  1.0000
  H   H65       1.0  0.07564969070931021  0.8395252297740279  0.33416822128802615  1.0000
  H   H66       1.0  0.08412374658842542  0.9177493994317398  0.30114615548704965  1.0000
  H   H67       1.0  0.9471642699765243  0.9455706237258802  0.3396302375946254  1.0000
  H   H68       1.0  0.9372398674506017  0.8712095437344626  0.37195632069620527  1.0000
  H   H69       1.0  0.018291119753927724  0.7034461704743138  0.4044454987392984  1.0000
  H   H70       1.0  0.049177946302025675  0.6490287160596454  0.36497319442487963  1.0000
  H   H71       1.0  0.05406725194209249  0.7532667114274105  0.2472981970420992  1.0000
  H   H72       1.0  0.016127631907817484  0.8046975475906916  0.2877514009333339  1.0000
  H   H73       1.0  0.19994127505516274  0.6010863827663798  0.3714670358716653  1.0000
  H   H74       1.0  0.11759625915382659  0.6060663889328125  0.3495757005587441  1.0000
  H   H75       1.0  0.15011274299936872  0.7165034833801256  0.24573315129721013  1.0000
  H   H76       1.0  0.22919858507096974  0.7137138146747635  0.27066271237775097  1.0000
  H   H77       1.0  0.9984640568937562  0.6902350585719611  0.22788756907427765  1.0000
  H   H78       1.0  0.9842823712051165  0.7053183799421069  0.14789482581110241  1.0000
  H   H79       1.0  0.11788826859343918  0.6529125460985485  0.1270935638317652  1.0000
  H   H80       1.0  0.13361386937166034  0.6428916510730766  0.20552292558414842  1.0000
  H   H81       1.0  0.1101987598415768  0.5718906215143166  0.27407106380856006  1.0000
  H   H82       1.0  0.07176980925170282  0.5011329634448659  0.27994447878395623  1.0000
  H   H83       1.0  0.9431296427117696  0.5665152195374232  0.29757337772744963  1.0000
  H   H84       1.0  0.9840429498608636  0.6367860026730143  0.2970315031054421  1.0000
  C   C133      1.0  0.8157534892179826  0.734905463537132  0.8896163365913043  1.0000
  C   C134      1.0  0.8315622453889968  0.7676250581306422  0.8551267491635273  1.0000
  C   C135      1.0  0.8784087985236455  0.7787407979472846  0.8499776088671781  1.0000
  C   C136      1.0  0.910260636567461  0.7567125636997728  0.8806194870625184  1.0000
  C   C137      1.0  0.8943873138445383  0.7211106914751676  0.9123364604845687  1.0000
  C   C138      1.0  0.8483132794261194  0.7102744598240035  0.9156183301240002  1.0000
  H   H85       1.0  0.8075085063470286  0.7882109327849175  0.8343105090773164  1.0000
  H   H86       1.0  0.8905312735515983  0.804713341198645  0.8231168705403918  1.0000
  H   H87       1.0  0.9176870206233027  0.7024356794836166  0.9342544235430431  1.0000
  H   H88       1.0  0.837059813426301  0.6835172992084321  0.942043039117353  1.0000
  C   C139      1.0  0.9635109590755099  0.7708727742299029  0.9671097330874928  1.0000
  C   C140      1.0  0.9878178809156415  0.7642787035642251  0.9303501303513058  1.0000
  C   C141      1.0  0.03454021307484449  0.7542088074226726  0.9358620736808174  1.0000
  C   C142      1.0  0.05546839608741703  0.7469365372610982  0.9770452106470289  1.0000
  C   C143      1.0  0.031275624550460276  0.7533862424134316  0.013372853232998281  1.0000
  C   C144      1.0  0.9852905995411974  0.7644396012845641  0.008878189637664636  1.0000
  C   C145      1.0  0.9634650142970256  0.7716311084629045  0.881524830411327  1.0000
  C   C146      1.0  0.9735379873592276  0.8251677268423427  0.8669494681891464  1.0000
  C   C147      1.0  0.014436277196453597  0.8423620733486701  0.8469187465967548  1.0000
  C   C148      1.0  0.02103249958447615  0.8880958829504558  0.8350194728026703  1.0000
  C   C149      1.0  0.9898821797429188  0.9173656754884472  0.8475910971719729  1.0000
  C   C150      1.0  0.9509818415918347  0.9009819566574243  0.8702047100830246  1.0000
  C   C151      1.0  0.9430640712395256  0.8551453854567658  0.8801168883652017  1.0000
  C   C152      1.0  0.9957019536034752  0.6945714641622049  0.8680079210748859  1.0000
  C   C153      1.0  0.01766303409926254  0.6678494060595782  0.8425484678578365  1.0000
  C   C154      1.0  0.03227708929393478  0.6850426716636286  0.7999340895681406  1.0000
  C   C155      1.0  0.019985617331867118  0.7295402357806774  0.7833849457068294  1.0000
  C   C156      1.0  0.9945187996983819  0.7549834496887244  0.8072434057224929  1.0000
  C   C157      1.0  0.9857514404806014  0.739284724951245  0.8512357698445666  1.0000
  C   C158      1.0  0.06438251307139115  0.6573710094595159  0.7724908693073781  1.0000
  C   C159      1.0  0.20212939919908204  0.6787736176519946  0.8285289598240788  1.0000
  C   C160      1.0  0.17278025826219542  0.6457260451736616  0.8495016379154148  1.0000
  C   C161      1.0  0.12870712560070405  0.6399900281014809  0.8325896910209412  1.0000
  C   C162      1.0  0.1142879794725945  0.6669870529712149  0.7932771531798416  1.0000
  C   C163      1.0  0.14295527447045886  0.7027377738279635  0.774158431872647  1.0000
  C   C164      1.0  0.18665418822907087  0.7074977316352468  0.7906742910520167  1.0000
  C   C165      1.0  0.060915933026416506  0.6705392824617865  0.7199010718398161  1.0000
  C   C166      1.0  0.018875507228484332  0.6819597700246818  0.6989283937484803  1.0000
  C   C167      1.0  0.014908561775364797  0.695024763113747  0.6536578978398531  1.0000
  C   C168      1.0  0.05321208886684477  0.6950812057928503  0.627159962546229  1.0000
  C   C169      1.0  0.09446510070114489  0.6797142680734195  0.6458093698380485  1.0000
  C   C170      1.0  0.09863200410592733  0.667925884034745  0.692174931782551  1.0000
  C   C171      1.0  0.08507977228149273  0.5736134513711539  0.7722512195973993  1.0000
  C   C172      1.0  0.07278802792451625  0.5306125640798014  0.7672918019881165  1.0000
  C   C173      1.0  0.0267764799803548  0.5182651450372282  0.7660702541608636  1.0000
  C   C174      1.0  0.9933258805502158  0.5474918538196768  0.7739254390990564  1.0000
  C   C175      1.0  0.005590631529066306  0.5907258695085104  0.7804259374822304  1.0000
  C   C176      1.0  0.051013864691583  0.6049819086493938  0.7773504328708364  1.0000
  H   H89       1.0  0.9272976202068827  0.7785451316165954  0.9631122427863192  1.0000
  H   H90       1.0  0.054787067782366895  0.7500137459848802  0.9069909405647647  1.0000
  H   H91       1.0  0.09304553606613777  0.7366109063897842  0.9789224667085292  1.0000
  H   H92       1.0  0.9638448277469649  0.7662352469745085  0.03741664235771205  1.0000
  H   H93       1.0  0.04054832082153759  0.8214600495252108  0.8372262472153915  1.0000
  H   H94       1.0  0.051409756186653104  0.9012087032766546  0.8165830874752763  1.0000
  H   H95       1.0  0.9255051708661588  0.9232549465526916  0.8803099395204624  1.0000
  H   H96       1.0  0.9111322429948452  0.8436467399481926  0.8979175362675132  1.0000
  H   H97       1.0  0.9893749299262424  0.6819340215227665  0.9024242822023917  1.0000
  H   H98       1.0  0.028069152063509874  0.6345726659391048  0.8570838884616873  1.0000
  H   H99       1.0  0.031685708888164264  0.7453973008145466  0.7513151546561989  1.0000
  H   H100      1.0  0.9857295358360163  0.7896154073466221  0.7909904955304609  1.0000
  H   H101      1.0  0.1851066581989299  0.6251322490087051  0.8801102314288134  1.0000
  H   H102      1.0  0.10756352879356844  0.6120745816991024  0.8498411416712179  1.0000
  H   H103      1.0  0.13257327711825193  0.7255070159495856  0.7436496924050727  1.0000
  H   H104      1.0  0.20711538632934437  0.7362490234031468  0.7746210889516337  1.0000
  H   H105      1.0  0.9866316490511824  0.6761457850911323  0.7171650709842252  1.0000
  H   H106      1.0  0.9812750508285375  0.7054562749914591  0.6372152649607545  1.0000
  H   H107      1.0  0.12441006171407315  0.6757501016201061  0.6251162830750211  1.0000
  H   H108      1.0  0.13114539706857797  0.6542775801455128  0.7061844544117261  1.0000
  H   H109      1.0  0.12183844120391192  0.5826209493253559  0.7699113064569122  1.0000
  H   H110      1.0  0.0996829537984445  0.5073895693819623  0.7610442671876979  1.0000
  H   H111      1.0  0.9573742802861237  0.5368768235308843  0.775919191547352  1.0000
  H   H112      1.0  0.9798008919260908  0.6149536231779981  0.786184187458109  1.0000
  C   C177      1.0  0.3398597325487901  0.6744069245343871  0.37737506691628064  1.0000
  C   C178      1.0  0.35700163657176476  0.6444049950695194  0.4138018228330526  1.0000
  C   C179      1.0  0.40317121715856047  0.6335442275381374  0.41494681589184  1.0000
  C   C180      1.0  0.4339034415458629  0.6533012803471181  0.3821447618384968  1.0000
  C   C181      1.0  0.41692934916499036  0.687747527735385  0.34947251804472546  1.0000
  C   C182      1.0  0.37035665844516996  0.6966407121560203  0.34660004999317445  1.0000
  H   H113      1.0  0.33498225212802135  0.6277655027988028  0.44026314497654107  1.0000
  H   H114      1.0  0.4154781669617167  0.606650288043973  0.44169105783183116  1.0000
  H   H115      1.0  0.437759747239608  0.7066856697134642  0.32366756982912337  1.0000
  H   H116      1.0  0.3584316581030375  0.7226995297476134  0.3197965613193275  1.0000
  C   C183      1.0  0.48145228981919275  0.6330822914898432  0.29746586820477855  1.0000
  C   C184      1.0  0.5077966283335366  0.6442496709153613  0.33223770973541944  1.0000
  C   C185      1.0  0.5533622563584185  0.6585874628828792  0.3226364103825758  1.0000
  C   C186      1.0  0.5692596164733044  0.6659848720321261  0.27980301888570486  1.0000
  C   C187      1.0  0.5399594622621493  0.6623828285974668  0.24480151304966768  1.0000
  C   C188      1.0  0.49667681023303606  0.6441116511280583  0.2542776619984113  1.0000
  C   C189      1.0  0.48654376379646586  0.6384448732855177  0.3801576663265896  1.0000
  C   C190      1.0  0.4985299861355985  0.5855123597337183  0.39732923374020684  1.0000
  C   C191      1.0  0.5432727183454996  0.5718842333605351  0.41124888772813994  1.0000
  C   C192      1.0  0.5517811026834937  0.5274496992464343  0.4299615359156484  1.0000
  C   C193      1.0  0.5166152136556965  0.4972965509547564  0.4362490123343968  1.0000
  C   C194      1.0  0.47305071090947315  0.5087348726754143  0.4183418534498725  1.0000
  C   C195      1.0  0.464611871027317  0.5519589440573409  0.3971095548393929  1.0000
  C   C196      1.0  0.5155841418426708  0.7182064059830253  0.3928923856374056  1.0000
  C   C197      1.0  0.5382824138112916  0.7466764407226688  0.4167874588032047  1.0000
  C   C198      1.0  0.553239625150177  0.7312244782306303  0.45935523853818255  1.0000
  C   C199      1.0  0.5480120046885009  0.6846633471852128  0.4764036526286162  1.0000
  C   C200      1.0  0.5240646363876903  0.6568679680857519  0.4533173972339954  1.0000
  C   C201      1.0  0.5092086248636929  0.6723700142318151  0.41010722313754666  1.0000
  C   C202      1.0  0.5825265566271086  0.7638056997971404  0.48426549450319734  1.0000
  C   C203      1.0  0.7219922450523856  0.7553243445012258  0.4320817701553216  1.0000
  C   C204      1.0  0.6921239373187035  0.7883040837601236  0.4104533838297382  1.0000
  C   C205      1.0  0.6469627781804336  0.7880619598744334  0.4246925707643097  1.0000
  C   C206      1.0  0.6319040828544922  0.7575287189588844  0.46213450948029733  1.0000
  C   C207      1.0  0.6609578002811868  0.7205334053004385  0.4786836533416086  1.0000
  C   C208      1.0  0.70513519548975  0.7205429339434303  0.46338268505310337  1.0000
  C   C209      1.0  0.5813519430731439  0.7488947583316724  0.5368020364796529  1.0000
  C   C210      1.0  0.5393862872283769  0.7334519832686983  0.5581242037313744  1.0000
  C   C211      1.0  0.5381290208565386  0.7177290291128463  0.6040137947241133  1.0000
  C   C212      1.0  0.5778058784353669  0.7187379588357768  0.6290738317578649  1.0000
  C   C213      1.0  0.6177653369014623  0.7375984717188728  0.6085405114681568  1.0000
  C   C214      1.0  0.6191297123827437  0.7533661609138107  0.5639656654121068  1.0000
  C   C215      1.0  0.5958271258411545  0.8498146474208824  0.48296739190747895  1.0000
  C   C216      1.0  0.5790588399630852  0.8929976637802679  0.4804543984208961  1.0000
  C   C217      1.0  0.532713238149208  0.9023056081293105  0.4766532877431774  1.0000
  C   C218      1.0  0.5029426703264287  0.8681113171347898  0.4731051406482141  1.0000
  C   C219      1.0  0.5186288896141628  0.8254499297343157  0.4724760601595198  1.0000
  C   C220      1.0  0.5652440609483126  0.8150370562610565  0.4791762666343427  1.0000
  H   H117      1.0  0.4481163522648394  0.6183442897978371  0.3046323930736018  1.0000
  H   H118      1.0  0.5760010012395849  0.6654474176860821  0.3495657151541617  1.0000
  H   H119      1.0  0.6042044383306034  0.6792649289936797  0.27284885028766837  1.0000
  H   H120      1.0  0.4751355693497741  0.6381079059775993  0.22738430468332227  1.0000
  H   H121      1.0  0.5715156624476334  0.5961388306508509  0.41050663932084464  1.0000
  H   H122      1.0  0.5857343789269457  0.5199508778718384  0.44356831389333146  1.0000
  H   H123      1.0  0.44562440962634986  0.48367052207850375  0.4229251541532164  1.0000
  H   H124      1.0  0.4325924210900948  0.5606574164132431  0.38043725765489816  1.0000
  H   H125      1.0  0.5047187114267024  0.733902490051786  0.36005704690212087  1.0000
  H   H126      1.0  0.5441521762430296  0.7812413446727451  0.4007675413847632  1.0000
  H   H127      1.0  0.5619227284067646  0.6701655712549861  0.5089128014808743  1.0000
  H   H128      1.0  0.5184735061696674  0.6217466309652047  0.4690044678330219  1.0000
  H   H129      1.0  0.7053921975292236  0.8148206723407457  0.3833130541746433  1.0000
  H   H130      1.0  0.624305941658715  0.8127298702418755  0.4081900254577166  1.0000
  H   H131      1.0  0.6492528797046595  0.692619712458924  0.502961500349735  1.0000
  H   H132      1.0  0.7283392977273025  0.6964336016092584  0.48120663223277393  1.0000
  H   H133      1.0  0.5081534233889639  0.7338649898839793  0.5383298033807674  1.0000
  H   H134      1.0  0.5047447027782033  0.7046014946542658  0.6182429962541025  1.0000
  H   H135      1.0  0.6487885265825342  0.7407599816000946  0.6285545907195775  1.0000
  H   H136      1.0  0.6512312180248693  0.7687687133983844  0.5491439965435592  1.0000
  H   H137      1.0  0.6319154203698243  0.8435457254928279  0.4906328541586053  1.0000
  H   H138      1.0  0.6028651911376809  0.9196460674942281  0.48668196241214984  1.0000
  H   H139      1.0  0.4657859531268677  0.8761758224285712  0.46833544572599783  1.0000
  H   H140      1.0  0.49224015774888114  0.7996187002082676  0.47058216175704876  1.0000
  C   C221      1.0  0.32239991582396027  0.7224762196415989  0.867831512260596  1.0000
  C   C222      1.0  0.3398544480305763  0.6939584630314208  0.9045844580603946  1.0000
  C   C223      1.0  0.38597121813316293  0.6845382155789892  0.9072172764019668  1.0000
  C   C224      1.0  0.4158259733655859  0.7005240103505176  0.8724780538596286  1.0000
  C   C225      1.0  0.39790374925621397  0.7320626749806013  0.8377754444674261  1.0000
  C   C226      1.0  0.3519482723700816  0.7415510048538184  0.8350827136983591  1.0000
  H   H141      1.0  0.317792283595824  0.6773065735203448  0.9302369624327047  1.0000
  H   H142      1.0  0.401658735977215  0.6620825242554975  0.9352662778740646  1.0000
  H   H143      1.0  0.41811778302059127  0.7473077880037587  0.8109013922678632  1.0000
  H   H144      1.0  0.3375078021286767  0.7635604739322179  0.8056124563073597  1.0000
  C   C227      1.0  0.47823126454566856  0.6880264671135089  0.7917360724059503  1.0000
  C   C228      1.0  0.49879146631055477  0.6948650159057618  0.8302797340942015  1.0000
  C   C229      1.0  0.5455553665215997  0.7066478407127214  0.8300334274478344  1.0000
  C   C230      1.0  0.5675639671976233  0.7198800471496942  0.790191663163865  1.0000
  C   C231      1.0  0.5449044458061564  0.7184170023639174  0.7504131397755845  1.0000
  C   C232      1.0  0.5008430560277851  0.7008493308755842  0.7511154465645501  1.0000
  C   C233      1.0  0.4690709545940239  0.6877161653291026  0.8751075437330067  1.0000
  C   C234      1.0  0.47610770603249164  0.6330630895124985  0.888607810728477  1.0000
  C   C235      1.0  0.5137604193825698  0.6123247757477107  0.9118272048508639  1.0000
  C   C236      1.0  0.5164538234059483  0.5660244648707868  0.925054537454414  1.0000
  C   C237      1.0  0.48310852019415074  0.5383903712193546  0.9114644018177016  1.0000
  C   C238      1.0  0.44699399376820426  0.5584142037565327  0.8856488025038781  1.0000
  C   C239      1.0  0.44262010680346864  0.6041805382744561  0.8746116019720785  1.0000
  C   C240      1.0  0.4968585643460869  0.7645219290070386  0.8953013602669116  1.0000
  C   C241      1.0  0.5171234558826359  0.7897162272732884  0.9229709163648764  1.0000
  C   C242      1.0  0.5279041592165575  0.771286614525036  0.9659181414739872  1.0000
  C   C243      1.0  0.5163419742252074  0.7262279720753959  0.9798377954619203  1.0000
  C   C244      1.0  0.49233757101575226  0.7015429815864939  0.9533598309774612  1.0000
  C   C245      1.0  0.48726758819628935  0.718687743336973  0.9088615396898767  1.0000
  C   C246      1.0  0.5635101398988415  0.7960498062452548  0.9941036101420452  1.0000
  C   C247      1.0  0.6987909993301219  0.7596068733624587  0.946453259474601  1.0000
  C   C248      1.0  0.6751054393040398  0.7972315548033245  0.9249546834085896  1.0000
  C   C249      1.0  0.6329013494189949  0.8079008189679361  0.9403322064655601  1.0000
  C   C250      1.0  0.6116592090210953  0.7809530728876811  0.976399487817364  1.0000
  C   C251      1.0  0.633510373599903  0.7408899758831509  0.99461286577575  1.0000
  C   C252      1.0  0.6772545740242224  0.7315133213491823  0.9806199854875456  1.0000
  C   C253      1.0  0.5565824767231632  0.7804113644545455  0.04655362039747181  1.0000
  C   C254      1.0  0.5137698374815102  0.7700790078181751  0.0659133228019229  1.0000
  C   C255      1.0  0.5095772380647683  0.7549220564482014  0.11154895167144828  1.0000
  C   C256      1.0  0.5476209230871197  0.7531152022805746  0.13824925783127662  1.0000
  C   C257      1.0  0.5891872733429085  0.7655427125895551  0.11966808413743711  1.0000
  C   C258      1.0  0.5939667199691456  0.7796491043317041  0.07510555341370553  1.0000
  C   C259      1.0  0.5970449179597673  0.8747784897256788  0.0019954082303734744  1.0000
  C   C260      1.0  0.5919545744956394  0.9205624926790351  0.004774679172488305  1.0000
  C   C261      1.0  0.5496695681953322  0.9413717329746374  0.9994624439346258  1.0000
  C   C262      1.0  0.5124081383800316  0.9160954106167268  0.9908916383346908  1.0000
  C   C263      1.0  0.5174380506974562  0.8711333033199365  0.988045798028693  1.0000
  C   C264      1.0  0.559624625595322  0.8491171105061449  0.9919267919430713  1.0000
  H   H145      1.0  0.4427090955079209  0.6760151149199567  0.7906310209654928  1.0000
  H   H146      1.0  0.5637427392465881  0.7077993143363132  0.8603324734191772  1.0000
  H   H147      1.0  0.6029514904566102  0.730778769959986  0.7908440429299184  1.0000
  H   H148      1.0  0.4830870576206113  0.6944326732505852  0.7208729845525078  1.0000
  H   H149      1.0  0.5417983886736383  0.6338573840495589  0.920670944842719  1.0000
  H   H150      1.0  0.5457501918238123  0.5526487603955348  0.9456444417034227  1.0000
  H   H151      1.0  0.42194493871410543  0.5377972303855331  0.8738094411372885  1.0000
  H   H152      1.0  0.4151788681202309  0.6186187565713805  0.8520812007658806  1.0000
  H   H153      1.0  0.4924235972143965  0.7827587521883879  0.8609548969714831  1.0000
  H   H154      1.0  0.5275846464607226  0.8239471189557535  0.9083056855014537  1.0000
  H   H155      1.0  0.5252860607059103  0.7076759551676747  0.012735751135956127  1.0000
  H   H156      1.0  0.4830178485191647  0.6668803562117128  0.9660978787564714  1.0000
  H   H157      1.0  0.6934520842194666  0.8203002285816792  0.899025916176165  1.0000
  H   H158      1.0  0.616067197773288  0.8392286574200166  0.9247017198258342  1.0000
  H   H159      1.0  0.6168058491185039  0.7184273711926947  0.021728207086725917  1.0000
  H   H160      1.0  0.6957556158578175  0.7010046544059283  0.997305596544817  1.0000
  H   H161      1.0  0.48240892903844085  0.7748987318219921  0.045538437598256216  1.0000
  H   H162      1.0  0.4759555118818663  0.7442903429155036  0.126113995642227  1.0000
  H   H163      1.0  0.61857064943219  0.7646145231549549  0.1417844239002828  1.0000
  H   H164      1.0  0.6287580461907386  0.7896781078837896  0.06399046672616274  1.0000
  H   H165      1.0  0.6308213639941456  0.861377168220194  0.009704140568023822  1.0000
  H   H166      1.0  0.6224619503144033  0.9383142400076906  0.01306553576463246  1.0000
  H   H167      1.0  0.4781649413145045  0.9301917561059664  0.9867044253464509  1.0000
  H   H168      1.0  0.4874496445068604  0.8522807170187038  0.9811259126530563  1.0000
  C   C265      1.0  0.47889730021822485  0.4188785121829985  0.9882022360338181  1.0000
  C   C266      1.0  0.44806083908203287  0.40459406490953953  0.021601891718757944  1.0000
  C   C267      1.0  0.43227516235540864  0.3599787223527831  0.030547649260763813  1.0000
  C   C268      1.0  0.44462977231334727  0.3299975667404931  0.003941671889557648  1.0000
  C   C269      1.0  0.4799041577486785  0.3441447114773297  0.9735536475113662  1.0000
  C   C270      1.0  0.4965193283162269  0.3878790815052295  0.9647398637332584  1.0000
  H   H169      1.0  0.4337783604816252  0.4286656194765164  0.03987271903817496  1.0000
  H   H170      1.0  0.40712249804011424  0.3490519357731721  0.05663455201709236  1.0000
  H   H171      1.0  0.49233460472867563  0.32142837411885167  0.9522081809822855  1.0000
  H   H172      1.0  0.5211730175889696  0.3962035422456827  0.938082161966315  1.0000
  C   C271      1.0  0.39763880775901733  0.29363405106421214  0.9263126984318024  1.0000
  C   C272      1.0  0.4171911146052863  0.26489851215866367  0.9623533520380532  1.0000
  C   C273      1.0  0.43010997333477197  0.22193627135537025  0.9558661675276557  1.0000
  C   C274      1.0  0.4303647671050001  0.21134283563062756  0.9139407821541489  1.0000
  C   C275      1.0  0.41644194259888573  0.24357367704217947  0.8777570044155498  1.0000
  C   C276      1.0  0.39647145872541906  0.2831120020585282  0.8846669043866041  1.0000
  C   C277      1.0  0.42216287791613916  0.2806777218806308  0.00861307714600063  1.0000
  C   C278      1.0  0.3694146992068779  0.2761856215500777  0.024088790014698675  1.0000
  C   C279      1.0  0.3512785600694603  0.2357364379937351  0.046888464297803245  1.0000
  C   C280      1.0  0.3092136211532001  0.2341049305491244  0.06879544341123693  1.0000
  C   C281      1.0  0.2823339727035707  0.2723795777020922  0.06501796485769668  1.0000
  C   C282      1.0  0.295955583941392  0.3106002125027946  0.0357054768590998  1.0000
  C   C283      1.0  0.33878487161074805  0.3130381551474233  0.0156662676728131  1.0000
  C   C284      1.0  0.503743746878235  0.24389193110876614  0.025397177577136894  1.0000
  C   C285      1.0  0.5357282782352174  0.21840235598089847  0.051895479002262324  1.0000
  C   C286      1.0  0.5263102262490216  0.20072152044970298  0.09527007942750197  1.0000
  C   C287      1.0  0.48345142627580917  0.20955769409901376  0.11188246418450205  1.0000
  C   C288      1.0  0.45188396011066795  0.23513591108978263  0.08552698732958758  1.0000
  C   C289      1.0  0.4606218175605534  0.25202601875369557  0.04090254709744481  1.0000
  C   C290      1.0  0.5614225466524134  0.16544888115764458  0.12278286467352222  1.0000
  C   C291      1.0  0.5346816186797945  0.0456209698722736  0.06261514366834016  1.0000
  C   C292      1.0  0.5667761813131226  0.07616286898115554  0.045341392281162574  1.0000
  C   C293      1.0  0.5737867313344955  0.11477067919315731  0.06254524583626303  1.0000
  C   C294      1.0  0.5502138219017204  0.12298244363413241  0.09982175968300139  1.0000
  C   C295      1.0  0.5151701892093759  0.09273460461359621  0.1150987630005087  1.0000
  C   C296      1.0  0.5079134467797871  0.0548912958761254  0.0967472536120655  1.0000
  C   C297      1.0  0.5574135583278026  0.15619687257383894  0.17572314984192805  1.0000
  C   C298      1.0  0.5473600124627007  0.1917804576365666  0.1972130718906348  1.0000
  C   C299      1.0  0.5476244666654326  0.1860588568899645  0.24319419575871293  1.0000
  C   C300      1.0  0.5560884389847301  0.1449800172939796  0.26871089862870173  1.0000
  C   C301      1.0  0.5667063703852875  0.10891338018191413  0.24856601057725078  1.0000
  C   C302      1.0  0.5673141277483241  0.1143431378045104  0.2021019259742016  1.0000
  C   C303      1.0  0.6492748962614644  0.14893634232070407  0.1254519633184107  1.0000
  C   C304      1.0  0.6951392491903358  0.16110732691084084  0.1205850771249253  1.0000
  C   C305      1.0  0.706492249839982  0.20659630855170982  0.11297686452673841  1.0000
  C   C306      1.0  0.6731558548858365  0.23936504439668801  0.10967868539315569  1.0000
  C   C307      1.0  0.6271818310222911  0.22666775344395662  0.11483581401317089  1.0000
  C   C308      1.0  0.6140521119230367  0.18107701797937042  0.119126542362249  1.0000
  H   H173      1.0  0.3825379306243828  0.3260846571262402  0.928705867063396  1.0000
  H   H174      1.0  0.4437757243499279  0.19709493924908353  0.9840982347504317  1.0000
  H   H175      1.0  0.44586948817336597  0.18103825468072682  0.9081259482189696  1.0000
  H   H176      1.0  0.3829067032426835  0.30868696704002774  0.8576430711183044  1.0000
  H   H177      1.0  0.3704769295329025  0.20434810106594978  0.04774720909189382  1.0000
  H   H178      1.0  0.29753308298606995  0.2027926407014435  0.08735365067453682  1.0000
  H   H179      1.0  0.27503255422899753  0.3403491756607443  0.028008028028627754  1.0000
  H   H180      1.0  0.34745720289004134  0.344123217089296  0.9935078143352923  1.0000
  H   H181      1.0  0.5119090988420241  0.25517558922635764  0.990941565357603  1.0000
  H   H182      1.0  0.5677374790844303  0.2113821445038208  0.03518790005490956  1.0000
  H   H183      1.0  0.47267710016030906  0.19302443981645181  0.1446212773421564  1.0000
  H   H184      1.0  0.42061663522280457  0.2423063340277296  0.10066652491067653  1.0000
  H   H185      1.0  0.5882966808769224  0.0722454488507589  0.015987964123777648  1.0000
  H   H186      1.0  0.5979090077892912  0.13972586186233105  0.04613756187320313  1.0000
  H   H187      1.0  0.49400093093277014  0.10080220537020512  0.1416020238432434  1.0000
  H   H188      1.0  0.4812541623120815  0.03189765940021205  0.11157890788519562  1.0000
  H   H189      1.0  0.544708874504445  0.22644490542150825  0.17718667730689558  1.0000
  H   H190      1.0  0.5411059290702911  0.21475570303969957  0.2582907961000973  1.0000
  H   H191      1.0  0.5728416090934624  0.07578350879256956  0.2689931527315656  1.0000
  H   H192      1.0  0.5753058474191727  0.08433678722532284  0.18832339903770037  1.0000
  H   H193      1.0  0.640268018846357  0.11431625151887831  0.13545933579094055  1.0000
  H   H194      1.0  0.7212087373014784  0.13484141630223428  0.12281548366182488  1.0000
  H   H195      1.0  0.6811671367022366  0.27490811731376047  0.10816689513937298  1.0000
  H   H196      1.0  0.6014834210089909  0.2535957067787513  0.11532443314407204  1.0000
  C   C309      1.0  0.32285717593912483  0.24306167010884427  0.5820958316656389  1.0000
  C   C310      1.0  0.3471648387490712  0.21529203696736565  0.6163956964063495  1.0000
  C   C311      1.0  0.39263125955073863  0.22356142860393385  0.6232589978226858  1.0000
  C   C312      1.0  0.41622987809872025  0.25892720650219353  0.5967311063153143  1.0000
  C   C313      1.0  0.3937336393357672  0.27997517462037375  0.5583405541639941  1.0000
  C   C314      1.0  0.34762366402281697  0.27299772867537103  0.5516636469665304  1.0000
  H   H197      1.0  0.32867319198823414  0.18910709101575793  0.6385100390882786  1.0000
  H   H198      1.0  0.4092461056721517  0.20306921493848223  0.6525395325266188  1.0000
  H   H199      1.0  0.4112836038340797  0.30437744874131045  0.53268472132349  1.0000
  H   H200      1.0  0.3301042720202378  0.2932150098333007  0.5227259444865946  1.0000
  C   C315      1.0  0.506176402072702  0.2608177421250801  0.6883704926366381  1.0000
  C   C316      1.0  0.4668925092274299  0.27375315880975054  0.6636133462085542  1.0000
  C   C317      1.0  0.4295025434260909  0.2877954679277053  0.6852683602796907  1.0000
  C   C318      1.0  0.4291010926029628  0.28454359418046665  0.7304157028651345  1.0000
  C   C319      1.0  0.4675249194999317  0.26889367369924827  0.7553259588301492  1.0000
  C   C320      1.0  0.5068110072394956  0.25944352344883564  0.7337075579091481  1.0000
  C   C321      1.0  0.46501596384656485  0.2739754858464661  0.6124081915097584  1.0000
  C   C322      1.0  0.4814773519105275  0.32459448353942955  0.5933560395664467  1.0000
  C   C323      1.0  0.527197621496578  0.33689876812059616  0.5864328257226158  1.0000
  C   C324      1.0  0.5406006470868606  0.37948983560705274  0.5640621909897371  1.0000
  C   C325      1.0  0.5076445049824243  0.41148278164016777  0.5487379234238728  1.0000
  C   C326      1.0  0.462388458542165  0.4023335970869012  0.5590129047392123  1.0000
  C   C327      1.0  0.44908223391071833  0.36029194605305825  0.5819859922152321  1.0000
  C   C328      1.0  0.5051364325135164  0.19296154760674689  0.6171046601317033  1.0000
  C   C329      1.0  0.5319303478609405  0.16351840920394564  0.5987781142547163  1.0000
  C   C330      1.0  0.5480773161287862  0.1748037171060489  0.5553948598121718  1.0000
  C   C331      1.0  0.537744805340508  0.2182024307564728  0.532062297771184  1.0000
  C   C332      1.0  0.5096847725084801  0.2469423047739675  0.5489309745791335  1.0000
  C   C333      1.0  0.49563605089307683  0.23671650271593592  0.593382667312  1.0000
  C   C334      1.0  0.5799407834726562  0.1403006734598945  0.5344521379345832  1.0000
  C   C335      1.0  0.7008485143601626  0.16258003492985823  0.6154970099939292  1.0000
  C   C336      1.0  0.6726282096748634  0.12493354800221776  0.6273530137014895  1.0000
  C   C337      1.0  0.6346792062784378  0.11955559397038104  0.6019168597617992  1.0000
  C   C338      1.0  0.626444598399791  0.1480239068113689  0.5616457230807845  1.0000
  C   C339      1.0  0.6570485933707393  0.1838437231570134  0.5488277920651149  1.0000
  C   C340      1.0  0.6934379362222403  0.19158365707858868  0.5757750705649491  1.0000
  C   C341      1.0  0.5867189534241528  0.1498541218675307  0.48126321619207446  1.0000
  C   C342      1.0  0.5491438286178029  0.16477032203666528  0.45450233191111256  1.0000
  C   C343      1.0  0.5535607062344526  0.17130435027346244  0.40962126678120087  1.0000
  C   C344      1.0  0.5933890538113568  0.1605683616190257  0.3895106619521497  1.0000
  C   C345      1.0  0.6303347020623431  0.1439877960010469  0.41602523958674453  1.0000
  C   C346      1.0  0.6269591590894107  0.13934369652617615  0.46145550196869084  1.0000
  C   C347      1.0  0.5884303747198418  0.05412536458969752  0.5404999646433529  1.0000
  C   C348      1.0  0.5719662349726882  0.012544417428973498  0.5358168098941846  1.0000
  C   C349      1.0  0.5253203280219539  0.005560862155718382  0.5306011002339523  1.0000
  C   C350      1.0  0.49530320189436927  0.040974832126783545  0.5314232318779072  1.0000
  C   C351      1.0  0.5117920329657962  0.08259797074163355  0.5375775695688897  1.0000
  C   C352      1.0  0.5594331399950937  0.09052423967487885  0.540859439208321  1.0000
  H   H201      1.0  0.5377636705581459  0.25408343740065614  0.6721275678491886  1.0000
  H   H202      1.0  0.39822782029071135  0.2993447086022664  0.6680368804385788  1.0000
  H   H203      1.0  0.39799983500072605  0.29463693033415167  0.7456001747668444  1.0000
  H   H204      1.0  0.5379592619293571  0.25034348016016883  0.7520773738726593  1.0000
  H   H205      1.0  0.552978997027007  0.31188610150765167  0.5953830766966838  1.0000
  H   H206      1.0  0.57711823372576  0.38331396464353973  0.5548955895830494  1.0000
  H   H207      1.0  0.43658010512483386  0.42713400204863744  0.5498030332460007  1.0000
  H   H208      1.0  0.4131927449087562  0.3529194472427094  0.5900076005631323  1.0000
  H   H209      1.0  0.490904629281925  0.18272340278671367  0.6501596777678019  1.0000
  H   H210      1.0  0.5393498948983954  0.13138823727563745  0.6182296823813259  1.0000
  H   H211      1.0  0.5537515067937047  0.23081867446355223  0.49937341163644183  1.0000
  H   H212      1.0  0.502389725870646  0.27928261581374075  0.526966412965941  1.0000
  H   H213      1.0  0.6785448477751787  0.1004925350711211  0.6581746291793139  1.0000
  H   H214      1.0  0.6106329490171889  0.09287741051179485  0.6135698269095167  1.0000
  H   H215      1.0  0.652117892832723  0.20793158651906077  0.5182058846789396  1.0000
  H   H216      1.0  0.7145065055988064  0.22185150161042624  0.565816293728054  1.0000
  H   H217      1.0  0.5155854274145996  0.16954134339354318  0.46859839471333564  1.0000
  H   H218      1.0  0.5241900628454426  0.18565349171069453  0.39018966946375616  1.0000
  H   H219      1.0  0.6629748612275933  0.1339321348211664  0.40234856377698425  1.0000
  H   H220      1.0  0.6547194518545446  0.12512300322280973  0.4815727637341303  1.0000
  H   H221      1.0  0.6253830518829817  0.06021610113794629  0.5421608702722335  1.0000
  H   H222      1.0  0.5942926036411049  0.9858571339793855  0.5333504149623198  1.0000
  H   H223      1.0  0.4590480886426647  0.03667551623105969  0.5274124277039571  1.0000
  H   H224      1.0  0.4873304726294149  0.10866860687517815  0.5349514081637057  1.0000
  C   C353      1.0  0.4252707611895207  0.23694591002895923  0.8298736609745152  1.0000
  C   C354      1.0  0.4657723153139022  0.2658896612801727  0.8066143252337985  1.0000
  H   H225      1.0  0.4320251231504932  0.20060714639090793  0.830203179325736  1.0000
  H   H226      1.0  0.3926124035972662  0.24441075283376734  0.8110911149549297  1.0000
  H   H227      1.0  0.4970439018651695  0.25236560917225864  0.8238890751614345  1.0000
  H   H228      1.0  0.4635443594797813  0.3006685659719888  0.8153448973070526  1.0000
  C   C355      1.0  0.5554552683611372  0.13923585540504185  0.3189910720163433  1.0000
  C   C356      1.0  0.5950856847336479  0.1650695588504091  0.33810579916170497  1.0000
  H   H229      1.0  0.5586602827533415  0.10270148909412209  0.33369890727265106  1.0000
  H   H230      1.0  0.5218834073369438  0.15123036519982394  0.33064503770451886  1.0000
  H   H231      1.0  0.5922133142191445  0.20222170191587338  0.3232318733425092  1.0000
  H   H232      1.0  0.6295938261269453  0.15579140169099162  0.3277352908091934  1.0000
  C   C357      1.0  0.5462206266107148  0.9918102666102293  0.002534620077825789  1.0000
  C   C358      1.0  0.5302254561839461  0.9988772766815575  0.049423758521286915  1.0000
  H   H233      1.0  0.5222345544111086  0.008957296030316586  0.9769886266877283  1.0000
  H   H234      1.0  0.5808339942778143  0.008325378726161015  0.9961839027633885  1.0000
  H   H235      1.0  0.5466010145030595  0.9723832097543039  0.07653313342217626  1.0000
  H   H236      1.0  0.49344395354471504  0.9898730735399192  0.0515496511568902  1.0000
  C   C359      1.0  0.49128772911758933  0.4696201724576758  0.9747452391248717  1.0000
  C   C360      1.0  0.4841242034140692  0.48630605525661  0.924964668813172  1.0000
  H   H237      1.0  0.5257536284858231  0.47635515528198646  0.9850202204402112  1.0000
  H   H238      1.0  0.46998339405740636  0.4886503512490352  0.9954849244426172  1.0000
  H   H239      1.0  0.4517755400135758  0.4713825674030693  0.9143535122102234  1.0000
  H   H240      1.0  0.5114593537864172  0.47148483740161107  0.9072538895521025  1.0000
  C   C361      1.0  0.5754273790821727  0.6984697727100191  0.6782120077080939  1.0000
  C   C362      1.0  0.5663447902210955  0.7363008640833889  0.7052724541265292  1.0000
  H   H241      1.0  0.6075379586531982  0.6816159052150025  0.6910499095329284  1.0000
  H   H242      1.0  0.551646549772246  0.6692903554131409  0.6859972948142095  1.0000
  H   H243      1.0  0.5409607745734187  0.7610386519869319  0.6871289740002202  1.0000
  H   H244      1.0  0.5977584666266487  0.7551567387291133  0.711014061761437  1.0000
  C   C363      1.0  0.5544664303113683  0.6840532373691247  0.19839134963136373  1.0000
  C   C364      1.0  0.5434937778088054  0.7345129270352817  0.18735048778455046  1.0000
  H   H245      1.0  0.5926005443212478  0.6771512180615137  0.19218675207064967  1.0000
  H   H246      1.0  0.5352841250056445  0.6674873420803202  0.1744237158589321  1.0000
  H   H247      1.0  0.5078531248914165  0.7411558341990812  0.19658132862738525  1.0000
  H   H248      1.0  0.5646968752719336  0.7543380034196251  0.20750702547468092  1.0000
  C   C365      1.0  0.5184676017926608  0.9509220308870809  0.47572131664881556  1.0000
  C   C366      1.0  0.5090020477712  0.9589951898343092  0.5238343243952464  1.0000
  H   H249      1.0  0.5453136515235142  0.9751854900985772  0.4611459544266349  1.0000
  H   H250      1.0  0.4872217704213178  0.9608278781050772  0.4539065361043598  1.0000
  H   H251      1.0  0.4709175212780218  0.9563984861635679  0.5310371295673859  1.0000
  H   H252      1.0  0.5269546305649749  0.9330047597403971  0.548897689897192  1.0000
  C   C367      1.0  0.5224620120472132  0.45165561318329234  0.4673668614815003  1.0000
  C   C368      1.0  0.5206767140560565  0.45489485730521756  0.517233971966248  1.0000
  H   H253      1.0  0.4978785630580625  0.4267876235856156  0.45979459633981024  1.0000
  H   H254      1.0  0.5565904358863774  0.4356615697873705  0.46123915153607115  1.0000
  H   H255      1.0  0.49553093540795584  0.4805905086948598  0.5220302946340174  1.0000
  H   H256      1.0  0.5532760705753776  0.46834078745524665  0.5295193480708537  1.0000
  C   C369      1.0  0.2532162178591548  0.6828103689697732  0.8413701901171075  1.0000
  C   C370      1.0  0.26979586651382936  0.7265970704096735  0.8587414656223737  1.0000
  H   H257      1.0  0.27350989855614566  0.6786524607908639  0.8105685454484481  1.0000
  H   H258      1.0  0.2639586896605958  0.6531901547193928  0.8663303731050345  1.0000
  H   H259      1.0  0.25204950492141287  0.7320362817757702  0.8892202488762005  1.0000
  H   H260      1.0  0.2609857142112522  0.7566391177012192  0.8337613118252818  1.0000
  C   C371      1.0  0.7498230476874848  0.7545393507830127  0.9366509206428307  1.0000
  C   C372      1.0  0.7637001836705429  0.7289453022999834  0.8989726606850587  1.0000
  H   H261      1.0  0.7648886267568306  0.7891474823204042  0.9271681147576989  1.0000
  H   H262      1.0  0.7666673880382378  0.7383440834364734  0.9678120398764583  1.0000
  H   H263      1.0  0.7573902406832048  0.6920440204028092  0.9104126058683504  1.0000
  H   H264      1.0  0.7425922372714998  0.7409055719328052  0.869189527283809  1.0000
  C   C373      1.0  0.05966029153698138  0.7629196713418129  0.5621749495236543  1.0000
  C   C374      1.0  0.050218451737981486  0.7111005846175948  0.5775092024941011  1.0000
  H   H265      1.0  0.09698731364137912  0.7704992042640524  0.5671909510922377  1.0000
  H   H266      1.0  0.042947987463577086  0.7838453168535161  0.5833306933656686  1.0000
  H   H267      1.0  0.0723271513506108  0.6909884658026777  0.5590994449122602  1.0000
  H   H268      1.0  0.014705985907011707  0.7027061154961517  0.5675404402526234  1.0000
  C   C375      1.0  0.041976629606143435  0.6898128128755575  0.08153382403706644  1.0000
  C   C376      1.0  0.0525490358441968  0.7392963967884819  0.05834704890298228  1.0000
  H   H269      1.0  0.06173316451491059  0.6657352301395578  0.06518804958241772  1.0000
  H   H270      1.0  0.006206714465585561  0.6813585509689374  0.07592002958081391  1.0000
  H   H271      1.0  0.09069726324239617  0.7460781749103854  0.05624711831929337  1.0000
  H   H272      1.0  0.040148529743899104  0.7635431597572497  0.07987890965093532  1.0000
  C   C377      1.0  0.2728752780507888  0.6501604930102791  0.3343413016341219  1.0000
  C   C378      1.0  0.28737160960137415  0.679894726202953  0.367719180685053  1.0000
  H   H273      1.0  0.28149176132590725  0.6144675073396602  0.34804460518943536  1.0000
  H   H274      1.0  0.29446377881502633  0.6595989412380718  0.3040575666164722  1.0000
  H   H275      1.0  0.2671294314899796  0.671834638017285  0.39844759905344107  1.0000
  H   H276      1.0  0.279303549610091  0.7161839857196577  0.3540824464936225  1.0000
  C   C379      1.0  0.7967140790844892  0.7405782789651345  0.389094603427881  1.0000
  C   C380      1.0  0.7743539318969258  0.7633212469786216  0.4255479870902062  1.0000
  H   H277      1.0  0.780521469663909  0.7527980814529851  0.3558365492319393  1.0000
  H   H278      1.0  0.7908810058007649  0.7030748895612356  0.39465980224849895  1.0000
  H   H279      1.0  0.7836155729409818  0.7999782199339247  0.415858816177037  1.0000
  H   H280      1.0  0.7921506703121707  0.7527539046708963  0.4585730485125574  1.0000
  C   C381      1.0  0.25389372192301496  0.26247951291417515  0.6220873770183452  1.0000
  C   C382      1.0  0.2705221471766914  0.2425853517638463  0.5819959776198145  1.0000
  H   H281      1.0  0.2750783917550901  0.29255523552829965  0.6243740346677259  1.0000
  H   H282      1.0  0.2630695660025069  0.2382519644171848  0.6525961164859193  1.0000
  H   H283      1.0  0.2581064651999866  0.2639470632388678  0.5510911504371365  1.0000
  H   H284      1.0  0.25706367669109004  0.20876262891344968  0.5810873058028118  1.0000
  C   C383      1.0  0.739018067389078  0.18349929204331886  0.6866496745802627  1.0000
  C   C384      1.0  0.7444347443790797  0.16672234261114907  0.6427604929722076  1.0000
  H   H285      1.0  0.713597254738282  0.16207112673728527  0.7067502940047314  1.0000
  H   H286      1.0  0.7210702182687473  0.21689220326732658  0.679240504380086  1.0000
  H   H287      1.0  0.7626262728605331  0.13411506726135822  0.6485520276300277  1.0000
  H   H288      1.0  0.7685649526462716  0.18857742596398566  0.6224002530285953  1.0000
  C   C385      1.0  0.9983569368612423  0.9690819459500782  0.8362343636935349  1.0000
  C   C386      1.0  0.007549111084192743  0.9903908885810063  0.7877718667867183  1.0000
  H   H289      1.0  0.9678360551957048  0.9853631610395147  0.8466324983320579  1.0000
  H   H290      1.0  0.025976326535102744  0.9790546738557205  0.8591342248692833  1.0000
  H   H291      1.0  0.9894309881817108  0.9689492646114697  0.7658172905781083  1.0000
  H   H292      1.0  0.044498406269067786  0.9875699343877463  0.7811182588666136  1.0000
  C   C387      1.0  0.013814813604006413  0.4714414717998991  0.7556987472678939  1.0000
  C   C388      1.0  0.020061832694589686  0.47172301302932623  0.7051060307168217  1.0000
  H   H293      1.0  0.03710837698250518  0.44718624971234106  0.7765516005042404  1.0000
  H   H294      1.0  0.9772162880200864  0.46263245954836  0.7665861667309568  1.0000
  H   H295      1.0  0.051017677858954585  0.4910040169764087  0.690863515314056  1.0000
  H   H296      1.0  0.9903591217433182  0.49035211632372316  0.68814748526763  1.0000
  C   C389      1.0  0.936920826290302  0.21415909914946515  0.9362981030142509  1.0000
  C   C390      1.0  0.9825355923266391  0.18981031290910452  0.949525435617801  1.0000
  H   H297      1.0  0.9417807376013054  0.25037209415527767  0.9377293443377351  1.0000
  H   H298      1.0  0.9061070225996113  0.20243880087157107  0.9578000075484566  1.0000
  H   H299      1.0  0.9863529786683256  0.15804009430367127  0.9361050518589902  1.0000
  H   H300      1.0  0.014136018565211376  0.21064584487245203  0.9368406433298972  1.0000
  C   C391      1.0  0.07978894875662373  0.30132366173279473  0.4193270800353408  1.0000
  C   C392      1.0  0.03904858615360538  0.32511066742345684  0.4385456553883599  1.0000
  H   H301      1.0  0.07828946021123043  0.26446472452066916  0.4342552598861012  1.0000
  H   H302      1.0  0.1136477873556348  0.3122800545530201  0.42860019242424124  1.0000
  H   H303      1.0  0.0044399580579601115  0.31297876560342675  0.4297984409741351  1.0000
  H   H304      1.0  0.038952671631863826  0.3621517918297038  0.42446623492710756  1.0000
  C   C393      1.0  0.24978095790245325  0.3015789051436744  0.1307964846977565  1.0000
  C   C394      1.0  0.2399129382908783  0.2738213418327486  0.09344574601028863  1.0000
  H   H305      1.0  0.26296549952544496  0.33558209902633485  0.11778084267135437  1.0000
  H   H306      1.0  0.27880221916537823  0.2849855692626431  0.1517881350577991  1.0000
  H   H307      1.0  0.21094300832530452  0.2861448897511214  0.0726624577591998  1.0000
  H   H308      1.0  0.22997015918401587  0.23769093312299397  0.10965405472851898  1.0000
  C   C395      1.0  0.757230862674817  0.21918326605610988  0.1088355843995776  1.0000
  C   C396      1.0  0.782432924069082  0.217612213850815  0.15361280132183186  1.0000
  H   H309      1.0  0.7747707777210361  0.19674660006208683  0.08761127411276398  1.0000
  H   H310      1.0  0.7610247373245224  0.25346336275711134  0.0887915489344094  1.0000
  H   H311      1.0  0.7737676067293524  0.2482534745734273  0.1676123385464246  1.0000
  H   H312      1.0  0.7665726167052709  0.1896160529070353  0.1784737959575732  1.0000
  C   C397      1.0  0.02029300285339643  0.9856133981468783  0.2888644406974574  1.0000
  C   C398      1.0  0.02470349208757045  0.9837286487919026  0.23899799590634865  1.0000
  H   H313      1.0  0.9885405992816513  0.004159867628620306  0.2961507904212701  1.0000
  H   H314      1.0  0.04940046312276466  0.0042490042593270605  0.29915706289422594  1.0000
  H   H315      1.0  0.00045860147599128  0.9577627391079627  0.2280909384809402  1.0000
  H   H316      1.0  0.05932111484768571  0.9711050889062763  0.22992925146456897  1.0000
  C   C399      1.0  0.9772574343579067  0.48753767300149164  0.27895658942393264  1.0000
  C   C400      1.0  0.9795216626759571  0.4826822996804277  0.2301106529811501  1.0000
  H   H317      1.0  0.9911480174181079  0.45697584101414507  0.3024975135738744  1.0000
  H   H318      1.0  0.9410318861398717  0.4889872287739729  0.2890747998873277  1.0000
  H   H319      1.0  0.9453175955767479  0.48158484772199  0.21618400921000924  1.0000
  H   H320      1.0  0.9963211677396343  0.5126747719853931  0.208109478217822  1.0000
