data_image0
_chemical_formula_sum              "C800 H640"
_cell_length_a       60.43793214700371
_cell_length_b       28.444958235866
_cell_length_c       32.27202457706912
_cell_angle_alpha    89.97560000083907
_cell_angle_beta     90.20859999913702
_cell_angle_gamma    90.18879999986247

_space_group_name_H-M_alt    "P 1"
_space_group_IT_number       1

loop_
  _space_group_symop_operation_xyz
  'x, y, z'

loop_
  _atom_site_type_symbol
  _atom_site_label
  _atom_site_symmetry_multiplicity
  _atom_site_fract_x
  _atom_site_fract_y
  _atom_site_fract_z
  _atom_site_occupancy
  C   C1        1.0  0.619465881721715  0.051419679417794  0.4639994150011749  1.0000
  C   C2        1.0  0.6004081296290427  0.07274991743045486  0.44944181720447585  1.0000
  C   C3        1.0  0.5947470891308321  0.11667510800903338  0.46341066583528034  1.0000
  C   C4        1.0  0.6080981102621519  0.14074836221092  0.4919371122627839  1.0000
  C   C5        1.0  0.6273703532781705  0.11885531139933773  0.5049298767501317  1.0000
  C   C6        1.0  0.6327124858706141  0.07499503192864897  0.4919804937802709  1.0000
  H   H1        1.0  0.5897336450140798  0.05528654196737411  0.426403132739074  1.0000
  H   H2        1.0  0.5796329966594534  0.13347790494405676  0.45201062277566856  1.0000
  H   H3        1.0  0.6385729143103509  0.13661981426585704  0.5253098939295462  1.0000
  H   H4        1.0  0.6476899276999714  0.057945983947016465  0.5022247292668369  1.0000
  C   C7        1.0  0.6103220706476872  0.17154342239137135  0.5840701593656478  1.0000
  C   C8        1.0  0.6104459816806286  0.20520679913490414  0.552014316622597  1.0000
  C   C9        1.0  0.6179052522576614  0.24976672443860726  0.5626210976481614  1.0000
  C   C10       1.0  0.6254950043862403  0.2600245451270349  0.602175745556817  1.0000
  C   C11       1.0  0.6257102936262892  0.22630890864375097  0.6317247563250848  1.0000
  C   C12       1.0  0.6178467658662513  0.18204478806803873  0.6223078683505917  1.0000
  C   C13       1.0  0.6012231076607282  0.19234691686404376  0.5068541569186608  1.0000
  C   C14       1.0  0.5758338986656415  0.20256071836864215  0.5151214346797491  1.0000
  C   C15       1.0  0.5671619829824228  0.24667024110883518  0.513869568032268  1.0000
  C   C16       1.0  0.5453697600085908  0.25521358657923293  0.5225706609682261  1.0000
  C   C17       1.0  0.5318953886692549  0.21756941419413317  0.5316373981230029  1.0000
  C   C18       1.0  0.5404547183526721  0.17302512452266797  0.5349003079739872  1.0000
  C   C19       1.0  0.5623640693026944  0.1666747601994868  0.528526323583223  1.0000
  C   C20       1.0  0.6353865147745373  0.23081055246853258  0.4716221673595998  1.0000
  C   C21       1.0  0.645257606728088  0.25459821139674016  0.43978013352416345  1.0000
  C   C22       1.0  0.6333813961379449  0.268324498585986  0.4052236561659709  1.0000
  C   C23       1.0  0.6107288202650959  0.2598688014322657  0.40452335452653837  1.0000
  C   C24       1.0  0.6006373102246015  0.23649793322274879  0.4367000457825885  1.0000
  C   C25       1.0  0.6126880833188206  0.22275561931260138  0.4716965356752917  1.0000
  C   C26       1.0  0.6454035246722258  0.29562953465208186  0.3680580903989192  1.0000
  C   C27       1.0  0.6324472389715826  0.43550732706812645  0.4177454213206029  1.0000
  C   C28       1.0  0.6512806745223839  0.4116981933655059  0.42868685976678095  1.0000
  C   C29       1.0  0.6556746098352293  0.3679682117265959  0.4130199345943436  1.0000
  C   C30       1.0  0.6414732252484886  0.3476001937717923  0.38414023866730324  1.0000
  C   C31       1.0  0.6221425505873258  0.37205368719302684  0.3747946203286816  1.0000
  C   C32       1.0  0.6179077334033568  0.41570623002987256  0.3906660583692718  1.0000
  C   C33       1.0  0.6360322747353205  0.2857974755342567  0.32246101684029266  1.0000
  C   C34       1.0  0.6280308294891437  0.24274124753003148  0.31092773054839956  1.0000
  C   C35       1.0  0.6184039813083769  0.23557003914975638  0.27301414347267966  1.0000
  C   C36       1.0  0.6183014327434535  0.2700019644268144  0.24386238345739955  1.0000
  C   C37       1.0  0.6270685773490013  0.31366780975233116  0.2538649219179667  1.0000
  C   C38       1.0  0.6363386202932568  0.32127954380520346  0.29172862024857665  1.0000
  C   C39       1.0  0.6862528995507859  0.3128969300557489  0.3487657098364993  1.0000
  C   C40       1.0  0.708019229340208  0.30118009925609385  0.3437458485272927  1.0000
  C   C41       1.0  0.7152092675757244  0.25627346086844605  0.3527692041645826  1.0000
  C   C42       1.0  0.6998870032325085  0.22239245996668602  0.36238440764758756  1.0000
  C   C43       1.0  0.6778225183195372  0.23448502303956265  0.366084231353262  1.0000
  C   C44       1.0  0.6707200689013447  0.28091557356257485  0.36174917828438546  1.0000
  H   H5        1.0  0.6035702134761866  0.13717834811381593  0.5794128435954394  1.0000
  H   H6        1.0  0.6172587571007562  0.27910448240487756  0.5411503451719314  1.0000
  H   H7        1.0  0.6297426663650275  0.29668957550174396  0.6096931428013448  1.0000
  H   H8        1.0  0.6171620962429408  0.15395976804105002  0.6457338877935558  1.0000
  H   H9        1.0  0.5769488068957936  0.2767631379068744  0.5051436856577459  1.0000
  H   H10       1.0  0.5382152096477821  0.2901496400913498  0.5218827540480755  1.0000
  H   H11       1.0  0.5312465651255044  0.14224206215427576  0.5422503765082083  1.0000
  H   H12       1.0  0.569457579282619  0.1325535916932027  0.5337630924798645  1.0000
  H   H13       1.0  0.6460780460455658  0.21779450262864736  0.4962535732527375  1.0000
  H   H14       1.0  0.6630684744300027  0.26197004377322336  0.4420018869554604  1.0000
  H   H15       1.0  0.6003641996798583  0.26959269247681944  0.37875473313927793  1.0000
  H   H16       1.0  0.5829519284179783  0.23020470079056368  0.43518479135036503  1.0000
  H   H17       1.0  0.6630519769954263  0.4290485113695332  0.4491722320600925  1.0000
  H   H18       1.0  0.6706165471311161  0.35008202162237495  0.42269091431411754  1.0000
  H   H19       1.0  0.6097274881015201  0.35500505291980144  0.3557067526344146  1.0000
  H   H20       1.0  0.6029696069746319  0.43321026760259485  0.38326021359828183  1.0000
  H   H21       1.0  0.6290362660542576  0.2144184434985858  0.33238608830534744  1.0000
  H   H22       1.0  0.612387326375053  0.20023053659328172  0.26516890590314307  1.0000
  H   H23       1.0  0.6275128381420647  0.3411585932108309  0.23065921861024008  1.0000
  H   H24       1.0  0.6431011269915315  0.3547788869493874  0.2982990609399604  1.0000
  H   H25       1.0  0.6810916129089151  0.3493004545744412  0.3449388402581844  1.0000
  H   H26       1.0  0.7194573913608964  0.32847568967935564  0.3364298654710972  1.0000
  H   H27       1.0  0.7048462447442346  0.18702059756003517  0.3695485553925787  1.0000
  H   H28       1.0  0.6653606851754139  0.20656278811845802  0.3707632378822138  1.0000
  C   C45       1.0  0.607660793601714  0.04845275633941347  0.9576655906037966  1.0000
  C   C46       1.0  0.5887491570912678  0.07221948883480261  0.9456829957379312  1.0000
  C   C47       1.0  0.5844336063236727  0.1162630282521578  0.9614180918664197  1.0000
  C   C48       1.0  0.5986331832584324  0.1371188769372527  0.9898298871405649  1.0000
  C   C49       1.0  0.6184706695998672  0.114680747105358  0.9986797167079068  1.0000
  C   C50       1.0  0.6227321179462705  0.07075701332658317  0.9831057519300844  1.0000
  H   H29       1.0  0.5775360151544239  0.058029319135630746  0.9229665739738613  1.0000
  H   H30       1.0  0.5706280815274842  0.13539497389006858  0.950603699292882  1.0000
  H   H31       1.0  0.631179000432799  0.1319443612700599  0.018607758242879073  1.0000
  H   H32       1.0  0.637764243353478  0.053140717962139115  0.992993639237293  1.0000
  C   C51       1.0  0.6004221032376089  0.16707431727087382  0.08264457962451724  1.0000
  C   C52       1.0  0.6015147837805737  0.20147313127746955  0.05213342877198474  1.0000
  C   C53       1.0  0.6066987492426911  0.2464990082800346  0.06394528637974066  1.0000
  C   C54       1.0  0.6141925602277897  0.25614387569157443  0.10315071307262615  1.0000
  C   C55       1.0  0.6151169669295615  0.2203454462781316  0.13229813493615752  1.0000
  C   C56       1.0  0.6080035297889446  0.17603516680463105  0.12235571086410799  1.0000
  C   C57       1.0  0.5940238935283353  0.18981682137079783  0.005821768659953235  1.0000
  C   C58       1.0  0.568765936180496  0.2067881639650094  0.009826595420359328  1.0000
  C   C59       1.0  0.56159597455072  0.2530645443805363  0.0024260206108885907  1.0000
  C   C60       1.0  0.5394834502801618  0.2641264625428677  0.004365794178520455  1.0000
  C   C61       1.0  0.5238623853486354  0.22954753283713383  0.013137224940579275  1.0000
  C   C62       1.0  0.5309793898134314  0.18413923341205135  0.01988822570510342  1.0000
  C   C63       1.0  0.5529868869327255  0.173558824683262  0.019712313651693757  1.0000
  C   C64       1.0  0.6297710998661138  0.22866484277106847  0.9773236153850353  1.0000
  C   C65       1.0  0.6414678259560187  0.25018334520143515  0.9459091993648276  1.0000
  C   C66       1.0  0.6315607963611067  0.26361571113092636  0.9091464619744407  1.0000
  C   C67       1.0  0.6093444288712668  0.2523730512218547  0.9035502462186215  1.0000
  C   C68       1.0  0.5982149213760567  0.22902598002821786  0.933712795591348  1.0000
  C   C69       1.0  0.6074847418822967  0.21940463420972067  0.9724431946677511  1.0000
  C   C70       1.0  0.6442567505128335  0.29290811088665775  0.8757117067112684  1.0000
  C   C71       1.0  0.6269627076862481  0.43001358538683465  0.9245035191648282  1.0000
  C   C72       1.0  0.6468442836198803  0.4106699228713647  0.9339885780953723  1.0000
  C   C73       1.0  0.6524160942021118  0.36787859979364695  0.9183247516027554  1.0000
  C   C74       1.0  0.6379572382628266  0.34435792683229005  0.8914406054801157  1.0000
  C   C75       1.0  0.6173550875192094  0.363559914168174  0.8841958920597917  1.0000
  C   C76       1.0  0.6118989562554071  0.4068643388677441  0.9002284614510477  1.0000
  C   C77       1.0  0.6374161187067773  0.2820680718936495  0.8287512140316229  1.0000
  C   C78       1.0  0.6332031398773393  0.2360969630863899  0.8167097442491681  1.0000
  C   C79       1.0  0.6262080573184745  0.2261790641208189  0.7772294646562043  1.0000
  C   C80       1.0  0.6244166411557618  0.26090629554803413  0.7480832822646012  1.0000
  C   C81       1.0  0.6308172098309269  0.30633162438785955  0.7589720431538308  1.0000
  C   C82       1.0  0.636961899596271  0.31621082141225215  0.798517395023025  1.0000
  C   C83       1.0  0.683936858310446  0.31657418214624583  0.854990834751599  1.0000
  C   C84       1.0  0.7060636315477711  0.30985890528031457  0.8501042166746738  1.0000
  C   C85       1.0  0.71438213354106  0.2662232176585512  0.8589819343604003  1.0000
  C   C86       1.0  0.7009645083448176  0.23005257021140602  0.8722318892728492  1.0000
  C   C87       1.0  0.6787462468623702  0.23833459820624914  0.8781720584887437  1.0000
  C   C88       1.0  0.6701359670731177  0.28290401565845047  0.8708095952352407  1.0000
  H   H33       1.0  0.5947933450892549  0.13226414063101127  0.07730214574599682  1.0000
  H   H34       1.0  0.6057023098731175  0.27434971770802136  0.04238498205669837  1.0000
  H   H35       1.0  0.6199301614468218  0.29174991709889664  0.10937534109604231  1.0000
  H   H36       1.0  0.6079379203827358  0.14680543383951541  0.14511799308952142  1.0000
  H   H37       1.0  0.5739763787276909  0.28043867665163946  0.9962999306057644  1.0000
  H   H38       1.0  0.5333205826734911  0.2986501315614082  0.9992002949177505  1.0000
  H   H39       1.0  0.5190840527556888  0.15565470257857245  0.02789127903789794  1.0000
  H   H40       1.0  0.5574385808939007  0.13959936025281464  0.03021696219037443  1.0000
  H   H41       1.0  0.6384604195628103  0.21984445719984483  0.0053356809623363866  1.0000
  H   H42       1.0  0.6587983637671918  0.2576634261642102  0.9511924484587766  1.0000
  H   H43       1.0  0.6007185387926077  0.26357902192976057  0.8764739819471109  1.0000
  H   H44       1.0  0.5805321953848097  0.22068265014730898  0.9317947127824597  1.0000
  H   H45       1.0  0.6584456573963525  0.43006343920983303  0.9530981365483827  1.0000
  H   H46       1.0  0.6677781339040726  0.35156630911951314  0.9258049646894374  1.0000
  H   H47       1.0  0.6051092117275727  0.3459861540047049  0.8648911167780898  1.0000
  H   H48       1.0  0.5954422624437034  0.4217095179172921  0.8951218371068672  1.0000
  H   H49       1.0  0.6340991703944476  0.20756033263704568  0.8390853112329834  1.0000
  H   H50       1.0  0.6218065724845738  0.18989068046568475  0.7694393835874727  1.0000
  H   H51       1.0  0.6302936055392837  0.3330691194666637  0.7355522210705078  1.0000
  H   H52       1.0  0.6420443451256356  0.35077750830692217  0.807305250993957  1.0000
  H   H53       1.0  0.6771590462426013  0.3517923505678667  0.8487098107554497  1.0000
  H   H54       1.0  0.716141284876325  0.3388351191116895  0.8386700881370366  1.0000
  H   H55       1.0  0.7074289929328702  0.1960375356721036  0.8797926680348641  1.0000
  H   H56       1.0  0.6681566795673899  0.20843193395953  0.8883109388614129  1.0000
  C   C89       1.0  0.8799585898103155  0.05409872974343445  0.21879189463369725  1.0000
  C   C90       1.0  0.8999949820552822  0.07526606289122778  0.22623120514674858  1.0000
  C   C91       1.0  0.9049499377303467  0.11833703278547628  0.20861490049923603  1.0000
  C   C92       1.0  0.8895019843267046  0.14230228869625644  0.18488056241413242  1.0000
  C   C93       1.0  0.8687614904900508  0.1212978131968368  0.18025237423423676  1.0000
  C   C94       1.0  0.8638659999742083  0.07970527519296952  0.19833998808244704  1.0000
  H   H57       1.0  0.9133799850285924  0.05766470000387146  0.24250175314821892  1.0000
  H   H58       1.0  0.9205928052498593  0.13525066067025396  0.21574062461445298  1.0000
  H   H59       1.0  0.8555628065786751  0.1381355109053191  0.16340578165413586  1.0000
  H   H60       1.0  0.8480464349243033  0.06218093460606918  0.1935804158781623  1.0000
  C   C95       1.0  0.8814914098256595  0.16902784158717285  0.09255632676634384  1.0000
  C   C96       1.0  0.8854731787339447  0.20322634853151295  0.12102079959743749  1.0000
  C   C97       1.0  0.8814288575660263  0.24891168992369642  0.10899854162986977  1.0000
  C   C98       1.0  0.8733894975272715  0.2595083093360287  0.07090709033245328  1.0000
  C   C99       1.0  0.8685250848480527  0.22514257860985815  0.0421916244358993  1.0000
  C   C100      1.0  0.8732462142659879  0.1792430866749811  0.05357524449246241  1.0000
  C   C101      1.0  0.8943627402536796  0.1923912645434614  0.16682982285578601  1.0000
  C   C102      1.0  0.91991191693376  0.2034780316253413  0.16002295289409832  1.0000
  C   C103      1.0  0.9285339794129482  0.2474571545781432  0.16919287608689773  1.0000
  C   C104      1.0  0.9505802727097796  0.25871170579066327  0.16219233863642887  1.0000
  C   C105      1.0  0.9643190276583812  0.22470624308067144  0.1471219093294374  1.0000
  C   C106      1.0  0.9559878484022724  0.18041072584465448  0.13718630235299295  1.0000
  C   C107      1.0  0.9339027159058625  0.17097148310883656  0.14148448113200557  1.0000
  C   C108      1.0  0.8606509062927211  0.2343132435145923  0.19659357213561446  1.0000
  C   C109      1.0  0.849427930919084  0.2541926030295412  0.22845264871006354  1.0000
  C   C110      1.0  0.8599568319411831  0.2641602796786109  0.2659925349994314  1.0000
  C   C111      1.0  0.8822440645645389  0.2543768847048301  0.26949280372466583  1.0000
  C   C112      1.0  0.8927872707317597  0.23027974107582078  0.23943375025794397  1.0000
  C   C113      1.0  0.8826645417421023  0.22228585846640644  0.20158058743872376  1.0000
  C   C114      1.0  0.847049467033712  0.2905921501743587  0.3019778136228555  1.0000
  C   C115      1.0  0.8559508729324229  0.43532224667448827  0.2578637682263193  1.0000
  C   C116      1.0  0.8380654349178859  0.4092106390601906  0.2458511161661951  1.0000
  C   C117      1.0  0.8355722429713803  0.36398662545606136  0.2599414330459631  1.0000
  C   C118      1.0  0.8505951112764789  0.3434204796072516  0.2861451090800215  1.0000
  C   C119      1.0  0.8691165705746795  0.3700514700843362  0.296380048527126  1.0000
  C   C120      1.0  0.8717344811602452  0.41576729874992524  0.28306966935817734  1.0000
  C   C121      1.0  0.8545184706489704  0.2794881495088543  0.349230511809574  1.0000
  C   C122      1.0  0.8608817355694458  0.23432490701123695  0.36042914068085335  1.0000
  C   C123      1.0  0.8672682533370538  0.223994749758408  0.4000581569052009  1.0000
  C   C124      1.0  0.8687169911511601  0.25914339100192674  0.42954209539723837  1.0000
  C   C125      1.0  0.8618295725090352  0.3035025376424658  0.42001675362902785  1.0000
  C   C126      1.0  0.8544794647587315  0.3137898901074473  0.3809547958118314  1.0000
  C   C127      1.0  0.8069568976740593  0.3068495968630026  0.32295060825193134  1.0000
  C   C128      1.0  0.7845438286452403  0.2969702619749492  0.3248779871002811  1.0000
  C   C129      1.0  0.7772528324324781  0.25354852416896356  0.31310920114203006  1.0000
  C   C130      1.0  0.7919098796675607  0.2219941962976945  0.2986340282285562  1.0000
  C   C131      1.0  0.8141064012883258  0.23137975754567744  0.29635432948461593  1.0000
  C   C132      1.0  0.8218787908400786  0.2759065751038921  0.3063429238859909  1.0000
  H   H61       1.0  0.8847826886866536  0.1328330578944523  0.10030705460135522  1.0000
  H   H62       1.0  0.8858079500130115  0.27721544055225483  0.1303642488601848  1.0000
  H   H63       1.0  0.8713374735712942  0.29644622154794936  0.06254654230876791  1.0000
  H   H64       1.0  0.8709784873171831  0.15071779332708007  0.031591040769976014  1.0000
  H   H65       1.0  0.9175722516821129  0.2752932531175295  0.18099543765519216  1.0000
  H   H66       1.0  0.9563012806231882  0.29413452826848885  0.16853874477679062  1.0000
  H   H67       1.0  0.966676461856051  0.1544984444210737  0.12294291069009233  1.0000
  H   H68       1.0  0.9282020701797262  0.13677225929057524  0.1310183801702919  1.0000
  H   H69       1.0  0.8529727519130252  0.23003802688493327  0.16722149598509697  1.0000
  H   H70       1.0  0.8323878472002132  0.26469066869912006  0.22205728342853795  1.0000
  H   H71       1.0  0.8906103890874303  0.26147043272885645  0.2990982104656668  1.0000
  H   H72       1.0  0.9093719619229933  0.21813490016739825  0.2452450143933057  1.0000
  H   H73       1.0  0.8258606204186537  0.4255042436346156  0.22575679726623038  1.0000
  H   H74       1.0  0.8212450584552113  0.34457164803069956  0.2498505822105117  1.0000
  H   H75       1.0  0.8815526194285738  0.35684028472914747  0.3180608914951857  1.0000
  H   H76       1.0  0.8864493585111929  0.4345467435618193  0.2922321557194075  1.0000
  H   H77       1.0  0.8602977111518767  0.20682917161246273  0.33727890374191366  1.0000
  H   H78       1.0  0.871261004360887  0.18914786664523564  0.4092488412527977  1.0000
  H   H79       1.0  0.8616655405567522  0.3309458670617273  0.4439664499616561  1.0000
  H   H80       1.0  0.8494084329745981  0.3498965135783186  0.3752780143806793  1.0000
  H   H81       1.0  0.8125045199490203  0.34078444734129687  0.3349177097186942  1.0000
  H   H82       1.0  0.773124697399548  0.3223901260186055  0.33737806149616956  1.0000
  H   H83       1.0  0.7866727750766916  0.1860991736503009  0.2939079217663328  1.0000
  H   H84       1.0  0.825155056335902  0.2040434990846058  0.28546123044363764  1.0000
  C   C133      1.0  0.8866217063411188  0.04004002293212267  0.7134772260292808  1.0000
  C   C134      1.0  0.9048280004486465  0.0658696077976208  0.725645741684376  1.0000
  C   C135      1.0  0.907304086192306  0.11089470035913272  0.7114258999881111  1.0000
  C   C136      1.0  0.8921719071485156  0.12991116771117778  0.6829986113148635  1.0000
  C   C137      1.0  0.8735131505684994  0.10445682695700369  0.6735445391825244  1.0000
  C   C138      1.0  0.8712817666703125  0.06005919187451791  0.6871725330330742  1.0000
  H   H85       1.0  0.9171859750449117  0.050806594717774614  0.746942968090658  1.0000
  H   H86       1.0  0.9214748634598816  0.13182241101287273  0.7215616816809598  1.0000
  H   H87       1.0  0.8610181543164181  0.12000284278754975  0.6545744213214364  1.0000
  H   H88       1.0  0.856651407925838  0.0395075977757972  0.6786418674872434  1.0000
  C   C139      1.0  0.888603204303587  0.15773727963515455  0.5902861110855666  1.0000
  C   C140      1.0  0.8881664219256004  0.19119341743795026  0.6214867181981598  1.0000
  C   C141      1.0  0.8813063573906275  0.23683641883139966  0.6105390823923408  1.0000
  C   C142      1.0  0.87358430210775  0.2466109746729775  0.5712075394307611  1.0000
  C   C143      1.0  0.8736058688293504  0.21259944969914274  0.5413455620006228  1.0000
  C   C144      1.0  0.8808363371417388  0.1677724709469798  0.550675686940142  1.0000
  C   C145      1.0  0.8956594985460504  0.1824128116809667  0.6673533769011696  1.0000
  C   C146      1.0  0.9207415206881354  0.19769323014884915  0.6637217241515461  1.0000
  C   C147      1.0  0.9281469230017856  0.24344063473384536  0.6737583480901388  1.0000
  C   C148      1.0  0.9500167225117959  0.25572967697772336  0.6670651996778634  1.0000
  C   C149      1.0  0.96443842878651  0.22498196403645146  0.6500441514238684  1.0000
  C   C150      1.0  0.957231949784429  0.1805002010207591  0.6391894760126643  1.0000
  C   C151      1.0  0.9355282785617007  0.1675861885860333  0.6441721531640249  1.0000
  C   C152      1.0  0.8590795648606833  0.22033357642097823  0.6973981764407172  1.0000
  C   C153      1.0  0.8480013609974697  0.24405701034183727  0.7274646667390083  1.0000
  C   C154      1.0  0.8579307329151493  0.25467047848353425  0.7650485542818272  1.0000
  C   C155      1.0  0.8800705434686652  0.24316032613063315  0.7698422119641375  1.0000
  C   C156      1.0  0.8915060072693379  0.2213317805091363  0.7390475319080294  1.0000
  C   C157      1.0  0.8815574681257443  0.20958223622205274  0.7018726701015162  1.0000
  C   C158      1.0  0.8458371817956949  0.28516081210939054  0.7993726306534823  1.0000
  C   C159      1.0  0.861680911687729  0.42348000642785977  0.7482846964529335  1.0000
  C   C160      1.0  0.8416875846067192  0.4022290562306876  0.7392334526972593  1.0000
  C   C161      1.0  0.8367816923728955  0.35844896296620693  0.7554178573997197  1.0000
  C   C162      1.0  0.8515122063846844  0.336342389226241  0.7814095837340561  1.0000
  C   C163      1.0  0.8715844363176543  0.357617027672211  0.7901757489462445  1.0000
  C   C164      1.0  0.8765961305786582  0.4005714716549397  0.7729006089469689  1.0000
  C   C165      1.0  0.8542416058634713  0.27370371974271496  0.8446505401905976  1.0000
  C   C166      1.0  0.858428285251334  0.2279937928242363  0.8558739585004409  1.0000
  C   C167      1.0  0.8664984840848539  0.21743133571907222  0.895332547334661  1.0000
  C   C168      1.0  0.8699363519593509  0.25327629526545187  0.9235708165388583  1.0000
  C   C169      1.0  0.8648691330209747  0.29848614311712446  0.9134443308854713  1.0000
  C   C170      1.0  0.8557612718435552  0.30849997267869056  0.8751539443435787  1.0000
  C   C171      1.0  0.8068279342467338  0.31396633407410635  0.8220270788211425  1.0000
  C   C172      1.0  0.7840938971755336  0.30850493599594386  0.826399316047865  1.0000
  C   C173      1.0  0.7745953518511304  0.2655695677554824  0.8157770416231982  1.0000
  C   C174      1.0  0.7876088469517047  0.2296179383686837  0.8028276586533375  1.0000
  C   C175      1.0  0.8100124935751744  0.23488995176944388  0.7997289788328397  1.0000
  C   C176      1.0  0.8201522663851626  0.2776709509375034  0.8066824163500369  1.0000
  H   H89       1.0  0.8943744303454694  0.12290435537517189  0.5959535964772572  1.0000
  H   H90       1.0  0.8825268171734547  0.26522975906786417  0.6335250893007941  1.0000
  H   H91       1.0  0.8673551918441063  0.28168308664365216  0.5630208273450056  1.0000
  H   H92       1.0  0.8786880387678014  0.13882165711392663  0.5274820684837153  1.0000
  H   H93       1.0  0.9181558695996354  0.2707495437077677  0.6882415775711459  1.0000
  H   H94       1.0  0.9561540200458192  0.2902838425471621  0.6763147589420495  1.0000
  H   H95       1.0  0.9682616761543659  0.15534710516703265  0.6253290811755772  1.0000
  H   H96       1.0  0.9302847027596205  0.13337134492746883  0.6347769559482752  1.0000
  H   H97       1.0  0.8504127516129361  0.2119277175201353  0.6691723019558019  1.0000
  H   H98       1.0  0.8308310665669815  0.25390543178452474  0.7209946232738087  1.0000
  H   H99       1.0  0.8889182504189505  0.2559173672908921  0.7974297584060301  1.0000
  H   H100      1.0  0.9085035389051613  0.21109706569358272  0.7446220569051051  1.0000
  H   H101      1.0  0.829495093017472  0.4216786572497263  0.7212580110585509  1.0000
  H   H102      1.0  0.8214792612384052  0.341926912784071  0.746918178652094  1.0000
  H   H103      1.0  0.883787258593715  0.33803765190299856  0.8067598833455493  1.0000
  H   H104      1.0  0.8926792591183259  0.4168708079125203  0.7780351214095338  1.0000
  H   H105      1.0  0.8549807228388595  0.19826921642331036  0.8356395792725897  1.0000
  H   H106      1.0  0.8700143103537199  0.1818288166633453  0.9040677257486446  1.0000
  H   H107      1.0  0.8661688838983733  0.32627048404511383  0.9351474843482385  1.0000
  H   H108      1.0  0.8500076946850811  0.34342908963081825  0.8682748751420735  1.0000
  H   H109      1.0  0.813900233601468  0.34851779213018796  0.8288069902683918  1.0000
  H   H110      1.0  0.7735417245758105  0.3368856876746798  0.8365134069819701  1.0000
  H   H111      1.0  0.7806476357630672  0.1968595315540227  0.7913315565192903  1.0000
  H   H112      1.0  0.8192577862788057  0.20425842209609213  0.7898348941659898  1.0000
  C   C177      1.0  0.10733240196302839  0.40980409160318004  0.23232630835366794  1.0000
  C   C178      1.0  0.08806964443135112  0.38641744594057287  0.24195080787613438  1.0000
  C   C179      1.0  0.08498916105182905  0.34141679459293417  0.22807708871581917  1.0000
  C   C180      1.0  0.10104183739275946  0.31969050665286897  0.2033694552990972  1.0000
  C   C181      1.0  0.12108991345901317  0.3419022320631153  0.19751666885414076  1.0000
  C   C182      1.0  0.12421634313476315  0.38701455701138276  0.2131473394726783  1.0000
  H   H113      1.0  0.07543047550013413  0.4039443221198208  0.2607768371255693  1.0000
  H   H114      1.0  0.06999599481956112  0.32364347182734926  0.23846014505834354  1.0000
  H   H115      1.0  0.13428408896983143  0.3263821396694996  0.17924685263248522  1.0000
  H   H116      1.0  0.1394913921513201  0.4050872852218471  0.2075164185028695  1.0000
  C   C183      1.0  0.1092630476931388  0.2923597322055515  0.11191563881288649  1.0000
  C   C184      1.0  0.10673524249854166  0.2567611126402909  0.14154583499245144  1.0000
  C   C185      1.0  0.1125191832047553  0.21192578126942002  0.12973149844083912  1.0000
  C   C186      1.0  0.12082173813637503  0.2018046471503324  0.09107360847223561  1.0000
  C   C187      1.0  0.12351925598073935  0.23724680016576416  0.06299027325906321  1.0000
  C   C188      1.0  0.11798161157427448  0.2827268763245167  0.07408292728048156  1.0000
  C   C189      1.0  0.09722936366804813  0.26785267137530805  0.18592853592942482  1.0000
  C   C190      1.0  0.07159361381048691  0.25537106612755733  0.17970018949022404  1.0000
  C   C191      1.0  0.06326579734107451  0.21198254836372002  0.190771772488863  1.0000
  C   C192      1.0  0.041242219536194925  0.20210406908799286  0.1893795356455133  1.0000
  C   C193      1.0  0.026784788002217362  0.23553333831439296  0.1744798435966312  1.0000
  C   C194      1.0  0.034819193095802684  0.27769561514873886  0.15967837969805895  1.0000
  C   C195      1.0  0.05732187100626247  0.28648138719870464  0.1604598667487885  1.0000
  C   C196      1.0  0.1322447563073998  0.22989257742365074  0.21942774373286342  1.0000
  C   C197      1.0  0.14307027452638105  0.20999909775163492  0.2520810119453061  1.0000
  C   C198      1.0  0.13266864653222016  0.19959499331651717  0.2897194362529658  1.0000
  C   C199      1.0  0.11053052116636622  0.21050948635387054  0.2934170908827659  1.0000
  C   C200      1.0  0.0991723780411279  0.23085087001974552  0.25997458892004244  1.0000
  C   C201      1.0  0.10970035134404879  0.2411739816605357  0.22262248262779674  1.0000
  C   C202      1.0  0.14455839526848957  0.16864609846927758  0.3245526257191288  1.0000
  C   C203      1.0  0.12812877801742878  0.03216478774715299  0.2679580276095732  1.0000
  C   C204      1.0  0.14826813824567547  0.052220602877020655  0.2624380393773383  1.0000
  C   C205      1.0  0.1534193862011416  0.09400014021541546  0.28035150741963655  1.0000
  C   C206      1.0  0.13888068926954567  0.11681675496866159  0.3062471746795375  1.0000
  C   C207      1.0  0.11841344107183546  0.0959355113777023  0.3124522810200845  1.0000
  C   C208      1.0  0.11312526008615531  0.05446319104829964  0.2931366603590109  1.0000
  C   C209      1.0  0.13521874619328078  0.1797577809054245  0.3702519557118317  1.0000
  C   C210      1.0  0.12885293806650433  0.22459407484974234  0.3822624386960815  1.0000
  C   C211      1.0  0.11959256937610387  0.23179131747419066  0.42088438397876726  1.0000
  C   C212      1.0  0.11809449891445835  0.19558145713921066  0.4495130868403473  1.0000
  C   C213      1.0  0.12579094483752382  0.15239522339875322  0.43857784575381026  1.0000
  C   C214      1.0  0.13479480577736894  0.14369676439406215  0.3993423618666659  1.0000
  C   C215      1.0  0.18457765077382735  0.14278544030492027  0.3456174511388735  1.0000
  C   C216      1.0  0.20691991624724784  0.150216675643359  0.34411769010575244  1.0000
  C   C217      1.0  0.21563961434120343  0.19350472763480825  0.33512222258684704  1.0000
  C   C218      1.0  0.20142676012167793  0.23067456070774206  0.3284879490911611  1.0000
  C   C219      1.0  0.17893708274013198  0.2233852377119027  0.32724227980332093  1.0000
  C   C220      1.0  0.16994198630107923  0.178885633002569  0.33342104736539374  1.0000
  H   H117      1.0  0.10585613116829272  0.3276399875302562  0.12090459910416881  1.0000
  H   H118      1.0  0.11039399712632375  0.18305040228689526  0.1502828726143273  1.0000
  H   H119      1.0  0.12511092489824935  0.16536782553368762  0.08345488439757744  1.0000
  H   H120      1.0  0.12017875744755394  0.31041650519927055  0.05191652118454989  1.0000
  H   H121      1.0  0.0745420763819548  0.18504574549447794  0.20140892057666818  1.0000
  H   H122      1.0  0.03510942977830195  0.1695212150895813  0.20232396072766118  1.0000
  H   H123      1.0  0.02420527106485187  0.3044538179863272  0.14681328081931583  1.0000
  H   H124      1.0  0.06409596448382172  0.3179014709840701  0.1456264864480651  1.0000
  H   H125      1.0  0.141645003436737  0.2360860804091424  0.19075380014590412  1.0000
  H   H126      1.0  0.160295963687758  0.20215436683840682  0.24697717641296402  1.0000
  H   H127      1.0  0.1011981855210127  0.20197933114927163  0.3210139333641202  1.0000
  H   H128      1.0  0.0816578594211545  0.2380848050985272  0.2631293548452913  1.0000
  H   H129      1.0  0.15965047227966087  0.03577686955654692  0.241381890261091  1.0000
  H   H130      1.0  0.16904775018125834  0.10948642408428874  0.27179326362340345  1.0000
  H   H131      1.0  0.10612860424747261  0.11294956346727997  0.3318159312183758  1.0000
  H   H132      1.0  0.09691072484360072  0.04167581881146761  0.29795045946015436  1.0000
  H   H133      1.0  0.13021890012345452  0.2540596529955355  0.3611046528817219  1.0000
  H   H134      1.0  0.11472434988856445  0.26713801094949696  0.42838938650401315  1.0000
  H   H135      1.0  0.12463786100657832  0.1239636133286953  0.4604080450892179  1.0000
  H   H136      1.0  0.14168350978231264  0.11093957101226352  0.39125170885534594  1.0000
  H   H137      1.0  0.17953883900273526  0.10705088056097695  0.35254609921750674  1.0000
  H   H138      1.0  0.21737177562040635  0.12015683787568941  0.34757581678542815  1.0000
  H   H139      1.0  0.2078257763285704  0.26597078701525484  0.32367879800974836  1.0000
  H   H140      1.0  0.1679502403822969  0.2529969482710661  0.321305209267247  1.0000
  C   C221      1.0  0.11112336586225662  0.41669717737507483  0.7285368099569005  1.0000
  C   C222      1.0  0.0927918409956243  0.3940074288815166  0.7439186565858521  1.0000
  C   C223      1.0  0.08875612605564863  0.346936987648442  0.7341454204320017  1.0000
  C   C224      1.0  0.10187695376870241  0.324151949841977  0.7053896716977812  1.0000
  C   C225      1.0  0.12131094496958443  0.347546920698911  0.6922605652983317  1.0000
  C   C226      1.0  0.12529744220766548  0.39374594116921025  0.7018385846234907  1.0000
  H   H141      1.0  0.08305793240999493  0.4124714860818335  0.765894493872823  1.0000
  H   H142      1.0  0.07469133314053407  0.32972463738019053  0.7492638792762109  1.0000
  H   H143      1.0  0.13221777358795653  0.32759728225554313  0.6723112646139663  1.0000
  H   H144      1.0  0.13987097998798148  0.41011268680269986  0.6906926333091598  1.0000
  C   C227      1.0  0.10304771249185836  0.29047472884972775  0.6141924259007078  1.0000
  C   C228      1.0  0.10350972915978086  0.2573528335445858  0.6453248620572501  1.0000
  C   C229      1.0  0.10879200412352477  0.2116133300114829  0.6356817704558607  1.0000
  C   C230      1.0  0.11511245899688817  0.1997142364236811  0.5973015221991738  1.0000
  C   C231      1.0  0.11677747912235728  0.23340599806272352  0.5669375586381149  1.0000
  C   C232      1.0  0.10929108499367338  0.27869775449614304  0.5747896133032565  1.0000
  C   C233      1.0  0.09686826401228675  0.27223575438457637  0.6916129412158477  1.0000
  C   C234      1.0  0.07084457963929293  0.2594093483178158  0.6904602323226224  1.0000
  C   C235      1.0  0.062888777116824  0.2161976036969051  0.7009120793571618  1.0000
  C   C236      1.0  0.04088843004315048  0.20491302069562725  0.6999948701302944  1.0000
  C   C237      1.0  0.026249002218167953  0.23781233129722187  0.6854372723335953  1.0000
  C   C238      1.0  0.03378442001522561  0.2809614163903957  0.6721656266624029  1.0000
  C   C239      1.0  0.056192385674204134  0.29104672282008753  0.6733214342354485  1.0000
  C   C240      1.0  0.13294138480690235  0.2317587419900917  0.7201145982047873  1.0000
  C   C241      1.0  0.1439147652308111  0.2058692864007206  0.7493506423111849  1.0000
  C   C242      1.0  0.13486331251411163  0.19849705190178685  0.7884156988082018  1.0000
  C   C243      1.0  0.11327872310324608  0.21479870974395066  0.7953443468868351  1.0000
  C   C244      1.0  0.10202595484972714  0.2391521510742313  0.7647324889401365  1.0000
  C   C245      1.0  0.11097932582996545  0.2452144205927146  0.7257944783157598  1.0000
  C   C246      1.0  0.14831460900422738  0.16830176957252438  0.8220239801413218  1.0000
  C   C247      1.0  0.12891774327252084  0.031170952721368436  0.7688041542242706  1.0000
  C   C248      1.0  0.14973127840684117  0.05028505581358806  0.7622969266012251  1.0000
  C   C249      1.0  0.1554966392222784  0.09235858298815289  0.7800244738542934  1.0000
  C   C250      1.0  0.1414570999621404  0.11700623814498548  0.8064004364863716  1.0000
  C   C251      1.0  0.12035916562925965  0.09770590149498806  0.8119625667641652  1.0000
  C   C252      1.0  0.11449772027001975  0.0555351047722818  0.7939964211649185  1.0000
  C   C253      1.0  0.14181616375579026  0.17939458663352117  0.8682190989053045  1.0000
  C   C254      1.0  0.13770034976008555  0.22491754275650153  0.8808307257747309  1.0000
  C   C255      1.0  0.130320470824131  0.2355171482661927  0.9194867565354422  1.0000
  C   C256      1.0  0.1256302435778254  0.2005533542833023  0.9470588095782324  1.0000
  C   C257      1.0  0.13152151347958654  0.1547005492101972  0.9368796463678968  1.0000
  C   C258      1.0  0.139529558581232  0.14531585178530068  0.8976379651211115  1.0000
  C   C259      1.0  0.18943010292289966  0.14628927612833445  0.8370773667093007  1.0000
  C   C260      1.0  0.21180034367963818  0.15498799030170704  0.8353390073300013  1.0000
  C   C261      1.0  0.21942079840667209  0.19883717952208305  0.8247384236640781  1.0000
  C   C262      1.0  0.20454150093679274  0.23374967013331516  0.8158328178599671  1.0000
  C   C263      1.0  0.18210889442766182  0.22493742963780988  0.8145189776160761  1.0000
  C   C264      1.0  0.17440006893401652  0.17991596652990893  0.82400403654662  1.0000
  H   H145      1.0  0.09894207979479211  0.3272717462700925  0.6213844617640834  1.0000
  H   H146      1.0  0.10850394782440168  0.18546867621434548  0.6596066773499248  1.0000
  H   H147      1.0  0.11936743111677574  0.16374471392362153  0.590264420326823  1.0000
  H   H148      1.0  0.10801946906625386  0.30507504861276363  0.5503100427213232  1.0000
  H   H149      1.0  0.07477537412040791  0.19009950748515939  0.7117853468472889  1.0000
  H   H150      1.0  0.03531498852034997  0.17206241990945634  0.7103940396078853  1.0000
  H   H151      1.0  0.022383020951636398  0.30480161543307954  0.65870496152216  1.0000
  H   H152      1.0  0.06262912027841429  0.3233692472196929  0.6607531888835091  1.0000
  H   H153      1.0  0.1411295451685248  0.23766689681310596  0.6911915207602599  1.0000
  H   H154      1.0  0.16035154932896736  0.19249829419751224  0.7415078836855047  1.0000
  H   H155      1.0  0.10449029548304815  0.20844226601679475  0.8243789768049002  1.0000
  H   H156      1.0  0.08566800968567617  0.2523292709225785  0.7721755178689723  1.0000
  H   H157      1.0  0.16139112641799105  0.0336123262872364  0.7408478648837387  1.0000
  H   H158      1.0  0.17038582501777316  0.10708851213097578  0.7687979568646297  1.0000
  H   H159      1.0  0.10763124657677173  0.11598138082213098  0.8304988694503836  1.0000
  H   H160      1.0  0.09781948469574861  0.04275493847365897  0.7991867098642524  1.0000
  H   H161      1.0  0.14001108660010583  0.2542431955240548  0.8589354541630928  1.0000
  H   H162      1.0  0.12618871885144387  0.27072469022478685  0.9268523184687657  1.0000
  H   H163      1.0  0.12885755611349992  0.1260343864446518  0.9580963070988459  1.0000
  H   H164      1.0  0.14347069716008704  0.10857647824662646  0.8904707186962999  1.0000
  H   H165      1.0  0.1846680138051763  0.11197410138133755  0.8481892325456061  1.0000
  H   H166      1.0  0.222634800967675  0.1270723265736353  0.8432437395520915  1.0000
  H   H167      1.0  0.21114586881844116  0.2679568614318328  0.8085819070800021  1.0000
  H   H168      1.0  0.17051574765473476  0.25304748861035936  0.8051516685187109  1.0000
  C   C265      1.0  0.3827008802199567  0.429260562045417  0.4767442851028828  1.0000
  C   C266      1.0  0.4017912036829441  0.410265802370549  0.46193569424072334  1.0000
  C   C267      1.0  0.40692531504339147  0.36520485162805105  0.4731591125505667  1.0000
  C   C268      1.0  0.3942377020736711  0.3392438335214393  0.5005669355628706  1.0000
  C   C269      1.0  0.3744199182519  0.3592724741647622  0.5139873178654469  1.0000
  C   C270      1.0  0.3684952696674344  0.40382418806306786  0.5016514735000448  1.0000
  H   H169      1.0  0.41197324506595395  0.42983317808414356  0.4402108500192126  1.0000
  H   H170      1.0  0.4211490556587777  0.35018510599202585  0.4592119546785057  1.0000
  H   H171      1.0  0.3631758953775179  0.3407812051223208  0.5349901696887817  1.0000
  H   H172      1.0  0.3526569399643381  0.4185989761366488  0.5116880974386375  1.0000
  C   C271      1.0  0.39667298233441617  0.3045514180691917  0.5910824717994344  1.0000
  C   C272      1.0  0.3939030991751682  0.27231249557788406  0.5588747937451795  1.0000
  C   C273      1.0  0.3869492027074273  0.22690793694136685  0.5688897269250286  1.0000
  C   C274      1.0  0.3804100271420723  0.21756317510168052  0.6085652233466836  1.0000
  C   C275      1.0  0.3814433865558401  0.25060912958849846  0.6388362265131274  1.0000
  C   C276      1.0  0.38982480084903215  0.29414806890476086  0.630107245458785  1.0000
  C   C277      1.0  0.3998956905221897  0.2863797263023803  0.511734577635945  1.0000
  C   C278      1.0  0.42541324597830066  0.26953629618927855  0.5100922773310811  1.0000
  C   C279      1.0  0.43122730697461603  0.22299766517152622  0.5020233150785046  1.0000
  C   C280      1.0  0.45301535277692145  0.20976047762378167  0.4974713544221932  1.0000
  C   C281      1.0  0.46962312833229736  0.2424860406082268  0.5040436543214692  1.0000
  C   C282      1.0  0.46429391952726845  0.28675048726622426  0.5165096432393322  1.0000
  C   C283      1.0  0.4425567725621903  0.29948279143135287  0.520410881133339  1.0000
  C   C284      1.0  0.3633674915279431  0.24897305328994057  0.48294474342369903  1.0000
  C   C285      1.0  0.351777663864024  0.22303330606110439  0.45457013230739984  1.0000
  C   C286      1.0  0.3606471581789686  0.2105363769864301  0.41733639558429714  1.0000
  C   C287      1.0  0.3822912627599013  0.22558453963558855  0.4089482693102094  1.0000
  C   C288      1.0  0.3942108431332239  0.2506706175051273  0.4382555830524784  1.0000
  C   C289      1.0  0.3853050073763515  0.2601813822332098  0.4770510544051121  1.0000
  C   C290      1.0  0.3477578817795555  0.1763339992794636  0.3858847954062436  1.0000
  C   C291      1.0  0.37120978120948506  0.04607055142813961  0.44115594736446445  1.0000
  C   C292      1.0  0.3512245524747027  0.06353815582678288  0.45219344488507796  1.0000
  C   C293      1.0  0.3435711521453436  0.1044034672274004  0.43529014646426195  1.0000
  C   C294      1.0  0.3561503510473451  0.12804021734728122  0.40588677364755743  1.0000
  C   C295      1.0  0.37665225535612207  0.10982406180981397  0.3965256619098333  1.0000
  C   C296      1.0  0.38421708086405654  0.07025866460674766  0.4144918075090801  1.0000
  C   C297      1.0  0.3538893538138938  0.185565009657883  0.3391443089938534  1.0000
  C   C298      1.0  0.35676255233439197  0.23177423906365266  0.3239855673119777  1.0000
  C   C299      1.0  0.36367283697302494  0.24038033613379148  0.2851467144418571  1.0000
  C   C300      1.0  0.36801980796854783  0.20474875784504595  0.25843671412512936  1.0000
  C   C301      1.0  0.3633213426233557  0.1591094715770167  0.27045680301682273  1.0000
  C   C302      1.0  0.35576494127321956  0.14873246441968438  0.310283205145736  1.0000
  C   C303      1.0  0.3085944380612364  0.14539798688970892  0.3700722322822428  1.0000
  C   C304      1.0  0.28600540243436473  0.15226522018216462  0.36429939177665527  1.0000
  C   C305      1.0  0.2766634904941029  0.19366758195337413  0.3746272916183747  1.0000
  C   C306      1.0  0.2897649498584818  0.23057848579186868  0.38709947789587873  1.0000
  C   C307      1.0  0.3122983461298028  0.22561599971527146  0.38911671845902285  1.0000
  C   C308      1.0  0.32187756328205835  0.18211875656706253  0.3816705908503664  1.0000
  H   H173      1.0  0.4032756905583698  0.33974842497987945  0.5864437481081491  1.0000
  H   H174      1.0  0.38652488190502465  0.1994636914287757  0.5461423183627535  1.0000
  H   H175      1.0  0.37378338829990937  0.18315253935639272  0.6155868318199318  1.0000
  H   H176      1.0  0.39086400026663454  0.32044103397618134  0.6534496005465956  1.0000
  H   H177      1.0  0.4185470867671966  0.1978881144754823  0.49425492476851635  1.0000
  H   H178      1.0  0.4575086771839113  0.1745482330065362  0.49038777235253495  1.0000
  H   H179      1.0  0.4774493629391714  0.3117671058708372  0.5245352239744218  1.0000
  H   H180      1.0  0.43871300096570165  0.33459257513091617  0.5323222063633329  1.0000
  H   H181      1.0  0.3558252599796623  0.260280373227099  0.5110590654350764  1.0000
  H   H182      1.0  0.33510872074880593  0.2130398826496579  0.4613810305528542  1.0000
  H   H183      1.0  0.39068113407485683  0.21576083253495953  0.38075338162349903  1.0000
  H   H184      1.0  0.41015540991448174  0.2638185695634525  0.42995112113354406  1.0000
  H   H185      1.0  0.34030184145129905  0.04486568888543563  0.47350616469046247  1.0000
  H   H186      1.0  0.32805527436650306  0.11841799672410516  0.44498281694277936  1.0000
  H   H187      1.0  0.38712235584224514  0.1290365437538258  0.37516646190714137  1.0000
  H   H188      1.0  0.3994662534192594  0.05499536105260781  0.40563268190227664  1.0000
  H   H189      1.0  0.35469997192654495  0.26141168290062106  0.3441052953864705  1.0000
  H   H190      1.0  0.3654555533255611  0.2754018761700937  0.2746022168806848  1.0000
  H   H191      1.0  0.36545337172626274  0.13066572165683749  0.24851102292411048  1.0000
  H   H192      1.0  0.35248508097408865  0.11262358099573708  0.3192755739848208  1.0000
  H   H193      1.0  0.31496388204866477  0.11056978425716506  0.3634379587865568  1.0000
  H   H194      1.0  0.2756118729786461  0.12336146922940126  0.35617775196713025  1.0000
  H   H195      1.0  0.2830177492787211  0.2651645454954316  0.39281344348487685  1.0000
  H   H196      1.0  0.32189814780970294  0.25657164955668543  0.3975482262505976  1.0000
  C   C309      1.0  0.378180534211728  0.4134430759534143  0.9727871481278264  1.0000
  C   C310      1.0  0.3982364211514221  0.3925461663539749  0.9659359670447055  1.0000
  C   C311      1.0  0.4029013199015296  0.3493990076376914  0.9810947087265812  1.0000
  C   C312      1.0  0.387806175463379  0.32496414072767155  0.004678760840390872  1.0000
  C   C313      1.0  0.3671504769125611  0.34504180659163286  0.009995814325356718  1.0000
  C   C314      1.0  0.3625654433460355  0.38905899836643243  0.995271168905359  1.0000
  H   H197      1.0  0.4105469358650109  0.41265338318570394  0.9475298089109481  1.0000
  H   H198      1.0  0.4181500620773727  0.331974322586956  0.9737384428327193  1.0000
  H   H199      1.0  0.3541707345396603  0.32596356545094446  0.02548112587351468  1.0000
  H   H200      1.0  0.34667974703513205  0.4044643615739444  0.0025685598826317158  1.0000
  C   C315      1.0  0.38029358213098285  0.29421498995893663  0.09600980542628874  1.0000
  C   C316      1.0  0.3833233814056479  0.26083927474074486  0.06573725291993458  1.0000
  C   C317      1.0  0.3776876852894686  0.2152364376832374  0.07650020740845197  1.0000
  C   C318      1.0  0.36834565434258393  0.20336537197026447  0.11394589383127669  1.0000
  C   C319      1.0  0.3655531495261479  0.23764129490636332  0.14300314411203158  1.0000
  C   C320      1.0  0.3712875724666727  0.28345764402490925  0.133489887195121  1.0000
  C   C321      1.0  0.3930118965885372  0.2733569679986684  0.02131405223770732  1.0000
  C   C322      1.0  0.41861928224998307  0.26266883737603897  0.031180465693760047  1.0000
  C   C323      1.0  0.42745689016225324  0.21889560300821387  0.02377297862246522  1.0000
  C   C324      1.0  0.44932960222517676  0.20944447725918788  0.031665718953650016  1.0000
  C   C325      1.0  0.4630219356438453  0.24323364147446863  0.048425858366759014  1.0000
  C   C326      1.0  0.45443857630713075  0.28779610644591147  0.05661876781215545  1.0000
  C   C327      1.0  0.432001227110524  0.2959830093271132  0.04951752326752042  1.0000
  C   C328      1.0  0.36015786084917467  0.2334720834616512  0.9839857769991057  1.0000
  C   C329      1.0  0.3507274170283925  0.21164013448561927  0.9507059557269585  1.0000
  C   C330      1.0  0.36273701767645034  0.20317616923592277  0.9152043810235141  1.0000
  C   C331      1.0  0.38476586830165116  0.2146130312600698  0.9152570585804625  1.0000
  C   C332      1.0  0.39408899341135356  0.23705787196700506  0.949017175224787  1.0000
  C   C333      1.0  0.38199384887347254  0.24588360646375823  0.984484664450206  1.0000
  C   C334      1.0  0.3519697870956285  0.17384076277271346  0.8777599340726174  1.0000
  C   C335      1.0  0.3659185152987375  0.03426718303496027  0.9298022616578796  1.0000
  C   C336      1.0  0.3461725427895403  0.055456761418431616  0.9383825060808383  1.0000
  C   C337      1.0  0.34170079502673834  0.09982856126607381  0.9228736135792464  1.0000
  C   C338      1.0  0.3563547899341849  0.12311595359906295  0.8962714473202719  1.0000
  C   C339      1.0  0.37653549779282963  0.10025733512634295  0.8879545906820555  1.0000
  C   C340      1.0  0.38120845593429936  0.05695046464938432  0.9048330996643077  1.0000
  C   C341      1.0  0.3622579683685635  0.18486862402579252  0.8331854248547553  1.0000
  C   C342      1.0  0.3685662948772686  0.23007072505427997  0.8223369468031922  1.0000
  C   C343      1.0  0.377825361612412  0.23990113588351983  0.7838451460729674  1.0000
  C   C344      1.0  0.3796854376716283  0.20557548914496088  0.754367404940571  1.0000
  C   C345      1.0  0.37291940282138997  0.160940915405937  0.7642274041293953  1.0000
  C   C346      1.0  0.36358521244875813  0.1514222629191953  0.8021273570139049  1.0000
  C   C347      1.0  0.31143518214006516  0.15111864982378628  0.8564998918241814  1.0000
  C   C348      1.0  0.289681814072245  0.15931249607041684  0.8548266047211126  1.0000
  C   C349      1.0  0.2819442737628754  0.20474259779228524  0.8607915633755711  1.0000
  C   C350      1.0  0.2964857478575818  0.2410768929642766  0.8688853150667116  1.0000
  C   C351      1.0  0.3188343369345653  0.23149397626007884  0.8714448245984429  1.0000
  C   C352      1.0  0.32643355296524196  0.18576779934750182  0.8686095325626872  1.0000
  H   H201      1.0  0.38538823926285104  0.3306539874048151  0.09001014155784073  1.0000
  H   H202      1.0  0.38060533857237616  0.18574156091989732  0.055235517140285184  1.0000
  H   H203      1.0  0.36375262745269316  0.1673408987560419  0.12061487254095227  1.0000
  H   H204      1.0  0.3673774555650619  0.3125276093475089  0.15524292940299828  1.0000
  H   H205      1.0  0.41801935615851005  0.19073996764154608  0.008912856714890909  1.0000
  H   H206      1.0  0.4566215031215798  0.1760369440566679  0.02348436758398404  1.0000
  H   H207      1.0  0.4639663691990271  0.31505691904075817  0.07095914815343764  1.0000
  H   H208      1.0  0.42525335665735814  0.3296440943360072  0.059029230844520754  1.0000
  H   H209      1.0  0.3495550405706659  0.24019450668940792  0.010810054421788949  1.0000
  H   H210      1.0  0.3342927863874984  0.1989647679571273  0.9550719955940399  1.0000
  H   H211      1.0  0.39550759781763856  0.2059565761969915  0.8898881668900462  1.0000
  H   H212      1.0  0.4106790650434793  0.24837238014689353  0.9490946422202996  1.0000
  H   H213      1.0  0.3341936507442846  0.03869511055817688  0.958737733821689  1.0000
  H   H214      1.0  0.32670351550124693  0.11651983726629696  0.9333502500523497  1.0000
  H   H215      1.0  0.3891189199038019  0.11517673682180189  0.8685289668873543  1.0000
  H   H216      1.0  0.3965686993088981  0.04112034491084441  0.8999402842277414  1.0000
  H   H217      1.0  0.3663794835663333  0.2571496586434531  0.8444274352435217  1.0000
  H   H218      1.0  0.3824460723344363  0.2753198991987401  0.7748775666724464  1.0000
  H   H219      1.0  0.37411778025763903  0.1334896978376842  0.7421028302110403  1.0000
  H   H220      1.0  0.356419087564879  0.11729560680182169  0.8063229694908591  1.0000
  H   H221      1.0  0.31685365595412257  0.11423788427915742  0.8517186288611532  1.0000
  H   H222      1.0  0.2784338761181534  0.1287789768640336  0.8510803008181307  1.0000
  H   H223      1.0  0.29060989611515536  0.2769488803944055  0.8732544536136135  1.0000
  H   H224      1.0  0.3293394843130939  0.26030409019330275  0.8783300911595892  1.0000
  C   C353      1.0  0.6119430015187476  0.9118798514004703  0.9625831954789268  1.0000
  C   C354      1.0  0.5923141549598363  0.8901698292194653  0.9728646151233389  1.0000
  C   C355      1.0  0.5878676092219217  0.8460420398990393  0.9583627935634087  1.0000
  C   C356      1.0  0.6024567247000943  0.8218629101420365  0.933700400872066  1.0000
  C   C357      1.0  0.6228020028692614  0.8426006707580262  0.9275960016256851  1.0000
  C   C358      1.0  0.6274956438573964  0.8873441813766737  0.941044272046646  1.0000
  H   H225      1.0  0.5806697566349306  0.9087197953659627  0.9915713451996846  1.0000
  H   H226      1.0  0.5722256836409665  0.8304261571880187  0.9651550997299402  1.0000
  H   H227      1.0  0.6353782213795044  0.8257590483427251  0.9093757642811575  1.0000
  H   H228      1.0  0.6430432532301772  0.9023770597057184  0.9330124939519154  1.0000
  C   C359      1.0  0.6088105146129443  0.7919419205871973  0.8436062850910897  1.0000
  C   C360      1.0  0.6061756770031566  0.7577672002040932  0.8730468420656403  1.0000
  C   C361      1.0  0.6114453693562234  0.7114017469163412  0.8622820283692306  1.0000
  C   C362      1.0  0.621227700543822  0.7010483909982714  0.8247849038613856  1.0000
  C   C363      1.0  0.6242892426685804  0.7366920187909523  0.7966333976921622  1.0000
  C   C364      1.0  0.6178894879990899  0.7821864752663741  0.8055513982155552  1.0000
  C   C365      1.0  0.5968418740494394  0.7697233483765487  0.9186965931812152  1.0000
  C   C366      1.0  0.5713437491167852  0.7569550692744053  0.9105501639331263  1.0000
  C   C367      1.0  0.5618389509170056  0.713007239028346  0.9170945757140178  1.0000
  C   C368      1.0  0.5401721255379753  0.7046203918265113  0.9067790705915804  1.0000
  C   C369      1.0  0.5273296445419847  0.7392921003063435  0.889562805508894  1.0000
  C   C370      1.0  0.5365302845881083  0.7823473688405119  0.882175552816827  1.0000
  C   C371      1.0  0.558200480819876  0.7904567659887838  0.8918930127339084  1.0000
  C   C372      1.0  0.6308354080435229  0.7316056135348827  0.9525000913430267  1.0000
  C   C373      1.0  0.6413754279688039  0.7086381217402852  0.9828826469830085  1.0000
  C   C374      1.0  0.6306963966744664  0.6980723944971934  0.020042756867751647  1.0000
  C   C375      1.0  0.6085980216976996  0.7092223182026832  0.02323284774295423  1.0000
  C   C376      1.0  0.5978501314562443  0.7309438785168314  0.9916519108750176  1.0000
  C   C377      1.0  0.6087886665251306  0.7414690697268147  0.9551897454272189  1.0000
  C   C378      1.0  0.6432752571139452  0.6714073504175446  0.05612669745666038  1.0000
  C   C379      1.0  0.6270287024514146  0.5338338710521506  0.0032936509606282804  1.0000
  C   C380      1.0  0.6465344103667376  0.5566624356742439  0.9917603646687349  1.0000
  C   C381      1.0  0.6516975437310449  0.5994057333965713  0.009097878886972837  1.0000
  C   C382      1.0  0.6382590677176593  0.6195183605489986  0.039066295968945126  1.0000
  C   C383      1.0  0.6189206095463777  0.5960223519909406  0.049499860792543586  1.0000
  C   C384      1.0  0.6139575061009845  0.5536636410210315  0.03341926186406977  1.0000
  C   C385      1.0  0.635890796576289  0.683029336415455  0.10216409341777961  1.0000
  C   C386      1.0  0.6298433513172993  0.7277242862694069  0.11421238029583952  1.0000
  C   C387      1.0  0.6252817733440668  0.7379528255648411  0.15548183761715867  1.0000
  C   C388      1.0  0.6255834840568485  0.7027450210771038  0.1838648151689732  1.0000
  C   C389      1.0  0.6318264548750303  0.6580636704228711  0.1728028380777778  1.0000
  C   C390      1.0  0.6379357532856812  0.6487802131013898  0.1328307979973011  1.0000
  C   C391      1.0  0.6846800115214113  0.6509463669622878  0.0717493115076646  1.0000
  C   C392      1.0  0.7069136552104351  0.6615346442860957  0.07313659046330151  1.0000
  C   C393      1.0  0.714202746951399  0.7062293070993513  0.06333484645510258  1.0000
  C   C394      1.0  0.6994669175701907  0.7397236933339332  0.052759671963707365  1.0000
  C   C395      1.0  0.6766722311371208  0.7284633217485807  0.05268933193178207  1.0000
  C   C396      1.0  0.6690615138695061  0.6836789721807229  0.05883153507197299  1.0000
  H   H229      1.0  0.6045107263233322  0.8282412987633287  0.8489453104218075  1.0000
  H   H230      1.0  0.6083922937235446  0.6808806747229191  0.8821910462159295  1.0000
  H   H231      1.0  0.6265917185862875  0.6655019494322721  0.8181630250849816  1.0000
  H   H232      1.0  0.6190701148954489  0.8105148698560403  0.7834175282577387  1.0000
  H   H233      1.0  0.571680277671703  0.6862652701349267  0.9298270510964437  1.0000
  H   H234      1.0  0.5331032723552424  0.6702958187071201  0.910952992309791  1.0000
  H   H235      1.0  0.5259714420280474  0.810740141601579  0.872678099167001  1.0000
  H   H236      1.0  0.5644930500515419  0.8250596417845958  0.8865013098462421  1.0000
  H   H237      1.0  0.6407777199560531  0.7419150320752939  0.9263410362983835  1.0000
  H   H238      1.0  0.6583935461626498  0.7007641087725759  0.9809924522925049  1.0000
  H   H239      1.0  0.5993363264919391  0.7008071681116297  0.05073251562513764  1.0000
  H   H240      1.0  0.5803440691281373  0.7397638983942457  0.9928696920444732  1.0000
  H   H241      1.0  0.6567544737585452  0.5421650708043836  0.9674047412796215  1.0000
  H   H242      1.0  0.6662495340808389  0.6172926232831605  0.998214914734832  1.0000
  H   H243      1.0  0.6074337079275403  0.6097431423909386  0.0730699688471608  1.0000
  H   H244      1.0  0.5989140592862483  0.5364882900281875  0.04461169337570816  1.0000
  H   H245      1.0  0.6299265510211751  0.7567843004995676  0.09127161411276542  1.0000
  H   H246      1.0  0.6205160601636517  0.7727468096481946  0.1623661745743588  1.0000
  H   H247      1.0  0.6323415741051736  0.6292284931559886  0.19608476890908869  1.0000
  H   H248      1.0  0.644909823336047  0.6149460682165082  0.1257639487986736  1.0000
  H   H249      1.0  0.6796622312785894  0.616079141688309  0.07859119655132395  1.0000
  H   H250      1.0  0.7187969798699851  0.634236230631456  0.08047550375016872  1.0000
  H   H251      1.0  0.7046177390106749  0.775736464916568  0.0470528333382964  1.0000
  H   H252      1.0  0.6651924219254098  0.7553112220941949  0.046455717736886455  1.0000
  C   C397      1.0  0.6211143326594782  0.9184830811336954  0.4738563155101787  1.0000
  C   C398      1.0  0.6012575308194638  0.8966608266367417  0.48357067674743964  1.0000
  C   C399      1.0  0.5960751409033528  0.85296199052724  0.46895730271397157  1.0000
  C   C400      1.0  0.6092092203824766  0.830809950739444  0.4397894295636249  1.0000
  C   C401      1.0  0.6293924090821428  0.8507786954798232  0.43177624354781735  1.0000
  C   C402      1.0  0.6351106360911118  0.8937698959501608  0.44852770665742897  1.0000
  H   H253      1.0  0.5891563606873662  0.912615747236133  0.5034425104362926  1.0000
  H   H254      1.0  0.5808954230933557  0.835583202911557  0.47915505800323016  1.0000
  H   H255      1.0  0.6412193862655117  0.833101181133468  0.4118176468239904  1.0000
  H   H256      1.0  0.6505440257905319  0.9095597197107911  0.4381626226578635  1.0000
  C   C403      1.0  0.6127982763538402  0.8038369004690167  0.3456856220949244  1.0000
  C   C404      1.0  0.6110887781975939  0.769240049972901  0.37568084275734404  1.0000
  C   C405      1.0  0.6150174659037972  0.7232335103670954  0.3642250234609633  1.0000
  C   C406      1.0  0.6232469009028425  0.7124974275813177  0.325723926691277  1.0000
  C   C407      1.0  0.6256976122132212  0.7474627632228044  0.2971147455125661  1.0000
  C   C408      1.0  0.6204341579976727  0.7929776188615519  0.3075114360463006  1.0000
  C   C409      1.0  0.6032770254446199  0.7799196058966781  0.4222601978190683  1.0000
  C   C410      1.0  0.5772981349654555  0.7694671893975937  0.416041147419329  1.0000
  C   C411      1.0  0.5674795114279467  0.7259729068766753  0.42250499352488763  1.0000
  C   C412      1.0  0.5455108542974344  0.7188616625318066  0.41336698673423933  1.0000
  C   C413      1.0  0.5326947849431364  0.7548853927242131  0.3992958816693584  1.0000
  C   C414      1.0  0.5417391203176601  0.7982034160699062  0.3938545999045641  1.0000
  C   C415      1.0  0.5634653193448359  0.8054063143128991  0.4024627324459073  1.0000
  C   C416      1.0  0.6369547496634893  0.7353527085404911  0.4519579452187201  1.0000
  C   C417      1.0  0.6474596933392913  0.7106874343063302  0.4818230213286788  1.0000
  C   C418      1.0  0.637517774902128  0.7002109461588505  0.5193821194329337  1.0000
  C   C419      1.0  0.6157371669210627  0.7120563953773454  0.5237636526991177  1.0000
  C   C420      1.0  0.6041924122674853  0.7347707668248148  0.49337799837931545  1.0000
  C   C421      1.0  0.6145983088010015  0.747500219786619  0.4569313263306192  1.0000
  C   C422      1.0  0.6509862708378501  0.6709666269228276  0.5529934994458744  1.0000
  C   C423      1.0  0.6327713753558353  0.5335630110112063  0.5019985256399405  1.0000
  C   C424      1.0  0.6524682122545298  0.5545774502071876  0.49064806145745676  1.0000
  C   C425      1.0  0.6588053056509894  0.5974103782567999  0.5075513598782728  1.0000
  C   C426      1.0  0.6451143011636707  0.6197560848891719  0.5360592142268534  1.0000
  C   C427      1.0  0.6252063418118726  0.5987458014684128  0.5460462592883182  1.0000
  C   C428      1.0  0.6191580345725876  0.5566793427357091  0.5289880268764773  1.0000
  C   C429      1.0  0.6433319185357881  0.6807602725440648  0.5995387690295731  1.0000
  C   C430      1.0  0.6379033737876935  0.7256447148435262  0.6123301193285885  1.0000
  C   C431      1.0  0.6314002962366444  0.7351919363015775  0.6520985761448584  1.0000
  C   C432      1.0  0.6293512042046975  0.699460024692576  0.6810898245454368  1.0000
  C   C433      1.0  0.6354477356085234  0.6553978499531602  0.669104130999751  1.0000
  C   C434      1.0  0.6432253081588054  0.6462862127455549  0.63007625866058  1.0000
  C   C435      1.0  0.6917828604229208  0.6494359316914173  0.5706931585805584  1.0000
  C   C436      1.0  0.7141267273255082  0.6593706190473455  0.5714244470181958  1.0000
  C   C437      1.0  0.7214625678043787  0.7046384346939987  0.5613816257199622  1.0000
  C   C438      1.0  0.7065990385617064  0.7382454332873457  0.5505641344666041  1.0000
  C   C439      1.0  0.6845011458827368  0.7283913700318335  0.5503317334800667  1.0000
  C   C440      1.0  0.6767683999713535  0.6827347304584781  0.5573812300716994  1.0000
  H   H257      1.0  0.6095012475037832  0.839948265088284  0.35461911601741986  1.0000
  H   H258      1.0  0.6124879572831177  0.694641442868595  0.38636818945824125  1.0000
  H   H259      1.0  0.6262824905272167  0.6760054417917377  0.3187890812530027  1.0000
  H   H260      1.0  0.622895067225184  0.8206554768142954  0.28570602614945695  1.0000
  H   H261      1.0  0.5776009777925952  0.6971902946074131  0.43117200098282027  1.0000
  H   H262      1.0  0.5379497239269044  0.6848151331010056  0.416874692291043  1.0000
  H   H263      1.0  0.5311664973959442  0.827432942114812  0.38426108718030266  1.0000
  H   H264      1.0  0.5708532405859448  0.8393976464105293  0.39671468137888366  1.0000
  H   H265      1.0  0.6468080926766279  0.7457679422405377  0.4250583056969779  1.0000
  H   H266      1.0  0.6638467837799864  0.700087658785204  0.47497493892537845  1.0000
  H   H267      1.0  0.6070283008595992  0.700262658331316  0.5515061331320354  1.0000
  H   H268      1.0  0.5875340906712814  0.7467100512981955  0.5000711467915909  1.0000
  H   H269      1.0  0.6640389591895801  0.5377404186084647  0.47013789972558123  1.0000
  H   H270      1.0  0.6744430574689233  0.6141843288731889  0.497688262009628  1.0000
  H   H271      1.0  0.6140959495677979  0.6165248704400587  0.5668507956031409  1.0000
  H   H272      1.0  0.6029913788195763  0.5421353687259727  0.5365116214806461  1.0000
  H   H273      1.0  0.6387994847212883  0.755431804748211  0.5907726038173847  1.0000
  H   H274      1.0  0.6263862871808865  0.7708995402241278  0.6599010519328722  1.0000
  H   H275      1.0  0.6328636968551161  0.6259027220156119  0.6903021996517771  1.0000
  H   H276      1.0  0.6478453746415386  0.6099975573647036  0.6243622930715819  1.0000
  H   H277      1.0  0.6859341329068915  0.6142866379025291  0.5792857977227991  1.0000
  H   H278      1.0  0.7263760785543529  0.6327746979019185  0.5800914544761285  1.0000
  H   H279      1.0  0.7122473993204091  0.7732919764509618  0.5436726705458168  1.0000
  H   H280      1.0  0.673362394696725  0.7565025849787134  0.5414973973118272  1.0000
  C   C441      1.0  0.8744205282451596  0.918868772812428  0.21398429289219478  1.0000
  C   C442      1.0  0.8941037109259141  0.898592938032399  0.2021653083208517  1.0000
  C   C443      1.0  0.8991960808411991  0.8545640473741123  0.2166271569110974  1.0000
  C   C444      1.0  0.8860090755232314  0.8311300568517249  0.24472350657951591  1.0000
  C   C445      1.0  0.8669771423775923  0.853859646261555  0.2567993717079783  1.0000
  C   C446      1.0  0.8607766475094585  0.8965145203588085  0.2411119952487256  1.0000
  H   H281      1.0  0.903883856378053  0.9168180171435568  0.17904512857617078  1.0000
  H   H282      1.0  0.9137917422679565  0.8378460310706202  0.2046997185460369  1.0000
  H   H283      1.0  0.8566532549117223  0.8363979844458376  0.2787773780708237  1.0000
  H   H284      1.0  0.845923115671757  0.9126178197421658  0.2519539660726657  1.0000
  C   C447      1.0  0.8857350714148741  0.7967824233891685  0.3354444852881789  1.0000
  C   C448      1.0  0.8839064639205725  0.7649078964834412  0.30285040186030765  1.0000
  C   C449      1.0  0.8781698059512706  0.7189544804947441  0.3130255367868766  1.0000
  C   C450      1.0  0.8716623644163853  0.7066211794383258  0.3518334028587922  1.0000
  C   C451      1.0  0.872128715192501  0.7401382255394977  0.3828449905023351  1.0000
  C   C452      1.0  0.8782871297034491  0.785539128367608  0.3738774111018142  1.0000
  C   C453      1.0  0.8920523620814662  0.778140305571948  0.2584308266334704  1.0000
  C   C454      1.0  0.9178596451607113  0.7668036702717217  0.26354953582895085  1.0000
  C   C455      1.0  0.925364670316629  0.7214830587102482  0.25875061039094577  1.0000
  C   C456      1.0  0.9464262971000015  0.7096736305114224  0.26750066246806775  1.0000
  C   C457      1.0  0.961455064870952  0.7437827877632862  0.28035708504331347  1.0000
  C   C458      1.0  0.954550984608257  0.7895894513924266  0.28323513886059193  1.0000
  C   C459      1.0  0.932847220764616  0.8010815969254825  0.27636009794285327  1.0000
  C   C460      1.0  0.8582333187492885  0.7413622478188262  0.22433729204046027  1.0000
  C   C461      1.0  0.8475227819952121  0.7161592168998355  0.19403468233984728  1.0000
  C   C462      1.0  0.8573603170898025  0.7052500455418073  0.15729084689636533  1.0000
  C   C463      1.0  0.8795966603696951  0.7172155761925354  0.15301033059232955  1.0000
  C   C464      1.0  0.8906953188251868  0.741574722417857  0.18362249840701028  1.0000
  C   C465      1.0  0.8803537771940915  0.7521918357795532  0.22093029357782284  1.0000
  C   C466      1.0  0.8441827135458836  0.6746455579780823  0.12274862346534712  1.0000
  C   C467      1.0  0.8568009856026607  0.5360568386847591  0.1773244316718483  1.0000
  C   C468      1.0  0.837306818873642  0.5588659444737505  0.18477117901646883  1.0000
  C   C469      1.0  0.8337277432552288  0.6026953299253  0.16842905151114498  1.0000
  C   C470      1.0  0.8487653571519734  0.6244550892960792  0.14206796254220533  1.0000
  C   C471      1.0  0.8686967119363415  0.6012089976668824  0.13686558899157142  1.0000
  C   C472      1.0  0.873257033965679  0.5579278305038623  0.1536598138827059  1.0000
  C   C473      1.0  0.8522271169852538  0.6842260454719106  0.07669635384108948  1.0000
  C   C474      1.0  0.8566302547739917  0.7291650577031642  0.06311576979179337  1.0000
  C   C475      1.0  0.8659773707441119  0.7364742145701267  0.02511619435105464  1.0000
  C   C476      1.0  0.8686643615366105  0.6994902965407112  0.9984628091204719  1.0000
  C   C477      1.0  0.8629149943049803  0.6545719235823786  0.009737539362318219  1.0000
  C   C478      1.0  0.8540927597841559  0.6473326139386549  0.04872612044136526  1.0000
  C   C479      1.0  0.8032895396627243  0.653727050518291  0.10199738444343684  1.0000
  C   C480      1.0  0.7809664487961128  0.6627699592367688  0.10021812249050695  1.0000
  C   C481      1.0  0.7733124630849445  0.7062765813070251  0.11239748352497392  1.0000
  C   C482      1.0  0.7880889181345626  0.7401393528464146  0.12588231836781663  1.0000
  C   C483      1.0  0.8102650645125452  0.7304988953861591  0.12744870101707834  1.0000
  C   C484      1.0  0.8183049472609537  0.6866924461885826  0.1174049501148985  1.0000
  H   H285      1.0  0.8927557470124087  0.8315642402327742  0.33080576159689357  1.0000
  H   H286      1.0  0.878549615827666  0.6920535957353219  0.2898446229177139  1.0000
  H   H287      1.0  0.8668881819562213  0.6698348371017012  0.3578448417105581  1.0000
  H   H288      1.0  0.8781728733067748  0.8125625068616238  0.3982330344909276  1.0000
  H   H289      1.0  0.9151031120623576  0.6924947423935397  0.24879052384391936  1.0000
  H   H290      1.0  0.9515646191703927  0.6732359769192601  0.26464863756128143  1.0000
  H   H291      1.0  0.9667517173896368  0.815244949009013  0.29329810157765884  1.0000
  H   H292      1.0  0.9273197262853  0.8369698979206169  0.281175756251889  1.0000
  H   H293      1.0  0.8488221389513361  0.7523572330732974  0.25052733388330845  1.0000
  H   H294      1.0  0.830391235652994  0.7089710582085763  0.19895848457461843  1.0000
  H   H295      1.0  0.8885135901399684  0.7093012794102644  0.12460566228177151  1.0000
  H   H296      1.0  0.9077874009854964  0.7529322635081653  0.17890351890837403  1.0000
  H   H297      1.0  0.8245765889090017  0.5441792525336964  0.20424297314049553  1.0000
  H   H298      1.0  0.8186175879673059  0.6198756387997479  0.1766262991082901  1.0000
  H   H299      1.0  0.8817447610056786  0.6181233706793177  0.11994307875586832  1.0000
  H   H300      1.0  0.8886566233379074  0.5416224584422741  0.1464054945549383  1.0000
  H   H301      1.0  0.8546559057653406  0.7580005187813705  0.08415208735718946  1.0000
  H   H302      1.0  0.8708678429540551  0.7717009399588898  0.016334380805772594  1.0000
  H   H303      1.0  0.8660353732628369  0.6262617405630213  0.988872395076031  1.0000
  H   H304      1.0  0.8487034103345308  0.613680463801588  0.05837014164670085  1.0000
  H   H305      1.0  0.8084709609365663  0.6198305768904085  0.09290368877422167  1.0000
  H   H306      1.0  0.7696575152395383  0.6359542910728936  0.09021682350186794  1.0000
  H   H307      1.0  0.7822359279288426  0.7743280817669768  0.13399187332604168  1.0000
  H   H308      1.0  0.8210579938151209  0.7585305556202657  0.13829934814451578  1.0000
  C   C485      1.0  0.8845780803332617  0.9040258600091097  0.7084139832025872  1.0000
  C   C486      1.0  0.904369623323063  0.8807096300572623  0.7028425568853319  1.0000
  C   C487      1.0  0.9073222739908121  0.8359528223049997  0.7177131213439013  1.0000
  C   C488      1.0  0.8910880002894791  0.8151431196960351  0.7422639615617062  1.0000
  C   C489      1.0  0.8709688419619235  0.8384914030896856  0.7469553628099399  1.0000
  C   C490      1.0  0.867841083195837  0.8826651380755455  0.7309909643747348  1.0000
  H   H309      1.0  0.9169994885592061  0.8976981544332663  0.685229660785622  1.0000
  H   H310      1.0  0.9229447780932654  0.8198366730796794  0.7117760508078275  1.0000
  H   H311      1.0  0.858305702271293  0.8226099461307911  0.7652933499876464  1.0000
  H   H312      1.0  0.8524461217031168  0.9015742951465998  0.7334420201127486  1.0000
  C   C491      1.0  0.8805849323136332  0.7851193656118449  0.8335913519112406  1.0000
  C   C492      1.0  0.8847389760647106  0.7514469879503471  0.8039555781079987  1.0000
  C   C493      1.0  0.8804631996769026  0.7047589694116086  0.813803182577541  1.0000
  C   C494      1.0  0.8722605504446791  0.6919233710079358  0.8516938394225892  1.0000
  C   C495      1.0  0.8681471807307245  0.7253989692758969  0.8811312977173192  1.0000
  C   C496      1.0  0.8721885204385372  0.7721783027005994  0.8714758113966478  1.0000
  C   C497      1.0  0.894957602799114  0.7635083842417855  0.7602270084811324  1.0000
  C   C498      1.0  0.9205981098930504  0.7527878429011924  0.7709856248179011  1.0000
  C   C499      1.0  0.9305410504253532  0.7102219916369684  0.7617980391501249  1.0000
  C   C500      1.0  0.952536587163935  0.7033696161612091  0.770368987533622  1.0000
  C   C501      1.0  0.9652715891737413  0.7389457602387376  0.7886047182772522  1.0000
  C   C502      1.0  0.955255441323379  0.7803335486298817  0.7985235923826659  1.0000
  C   C503      1.0  0.9333935810204543  0.7870875344088726  0.7898534862449128  1.0000
  C   C504      1.0  0.8608284738461119  0.7254898247300052  0.7250724859175839  1.0000
  C   C505      1.0  0.8500403664996037  0.7042287894871103  0.6925766306400225  1.0000
  C   C506      1.0  0.8615616094360641  0.6920458621271792  0.6582091727508803  1.0000
  C   C507      1.0  0.8842968677746634  0.7008842572408392  0.6577288773787031  1.0000
  C   C508      1.0  0.8947823606142168  0.7231440491070796  0.689518233657191  1.0000
  C   C509      1.0  0.8834142623476545  0.7355061153931468  0.7242172502871265  1.0000
  C   C510      1.0  0.8499316762527936  0.6652711245377133  0.6209351531901112  1.0000
  C   C511      1.0  0.8625257597878464  0.5229427534172202  0.6660519313765606  1.0000
  C   C512      1.0  0.8435307009677321  0.5466046062022453  0.6767764622353037  1.0000
  C   C513      1.0  0.8398176610812003  0.591037285056519  0.6633870667309323  1.0000
  C   C514      1.0  0.8542609976876161  0.6125060089964004  0.6354121853114774  1.0000
  C   C515      1.0  0.8730296554118907  0.5892032124821271  0.6236929782303543  1.0000
  C   C516      1.0  0.8774515739070367  0.5449590742203365  0.6398525934942508  1.0000
  C   C517      1.0  0.8582657131605486  0.6782441998210726  0.5747710212243335  1.0000
  C   C518      1.0  0.8678261772845093  0.7221015328843181  0.5662930332354514  1.0000
  C   C519      1.0  0.8774709996318016  0.7304618714077358  0.5282443437195578  1.0000
  C   C520      1.0  0.8754360295948652  0.6983019645413043  0.496966269611452  1.0000
  C   C521      1.0  0.866221206168772  0.6541391018844386  0.5047501533205427  1.0000
  C   C522      1.0  0.8568753153211833  0.6451177192670142  0.5430436385422557  1.0000
  C   C523      1.0  0.808930642047634  0.6472130486755457  0.6028481590778649  1.0000
  C   C524      1.0  0.7869958336238868  0.658702251204754  0.6022408178330475  1.0000
  C   C525      1.0  0.7810280687837207  0.7046105491925171  0.6057950035871585  1.0000
  C   C526      1.0  0.7968437103999602  0.7379880448612043  0.6120605341842053  1.0000
  C   C527      1.0  0.8183473817910802  0.7259629026962474  0.6160144496351605  1.0000
  C   C528      1.0  0.8250258901607481  0.6795229299720438  0.6142110179796307  1.0000
  H   H313      1.0  0.8837911058769513  0.8221337754602205  0.828528109084547  1.0000
  H   H314      1.0  0.8837341885503771  0.6784448593831129  0.7913191618000083  1.0000
  H   H315      1.0  0.8701904921357803  0.6545491803048777  0.8592949010222707  1.0000
  H   H316      1.0  0.8693517686635558  0.7993855273363545  0.8936251747535667  1.0000
  H   H317      1.0  0.9216831522869731  0.681928765752876  0.7464688700781218  1.0000
  H   H318      1.0  0.9605283024127559  0.6708007374917788  0.7640321873007039  1.0000
  H   H319      1.0  0.9651253272084171  0.8063655592586931  0.8153370290886874  1.0000
  H   H320      1.0  0.9265404356554113  0.8210865399773593  0.7977117382696954  1.0000
  H   H321      1.0  0.8512311731612964  0.7342904605997244  0.7525980587630667  1.0000
  H   H322      1.0  0.832608066885679  0.6996473594301933  0.6939152603224775  1.0000
  H   H323      1.0  0.8941156301204299  0.6888063334873754  0.6318363087986227  1.0000
  H   H324      1.0  0.9121293029415964  0.7325035794903643  0.6872716907873301  1.0000
  H   H325      1.0  0.8312225882202313  0.5304091174958826  0.6975531104317421  1.0000
  H   H326      1.0  0.8255642905193583  0.6108658076852411  0.6769809751034566  1.0000
  H   H327      1.0  0.8852659433538727  0.6056196298699729  0.6040938283657051  1.0000
  H   H328      1.0  0.8926009605444687  0.5290027615276396  0.6304326068399372  1.0000
  H   H329      1.0  0.8685267774447625  0.7484471565541387  0.5890466391573673  1.0000
  H   H330      1.0  0.885818572826126  0.7639960092507371  0.5228557395117119  1.0000
  H   H331      1.0  0.8656911473247593  0.6270904697667273  0.4817672450919098  1.0000
  H   H332      1.0  0.8486278293534592  0.6125071300716407  0.5506663909006805  1.0000
  H   H333      1.0  0.811954827276531  0.6110156397962315  0.5974719495893012  1.0000
  H   H334      1.0  0.7743639634867304  0.632605770275414  0.595448511666516  1.0000
  H   H335      1.0  0.7929080911580653  0.7744159918215745  0.613123381362636  1.0000
  H   H336      1.0  0.8305892103939458  0.7528025417275298  0.6198877994107829  1.0000
  C   C529      1.0  0.10675208431423583  0.545599871775861  0.21852571803711648  1.0000
  C   C530      1.0  0.08811056541726126  0.5694695161751783  0.2059958963149512  1.0000
  C   C531      1.0  0.08571218009752599  0.6155108717016803  0.21817556721740022  1.0000
  C   C532      1.0  0.09931463463418957  0.6378077006730111  0.24595833048798432  1.0000
  C   C533      1.0  0.11846911278601695  0.6133023285133573  0.25722667965522494  1.0000
  C   C534      1.0  0.12219747119737934  0.5672017821096033  0.24382457956358947  1.0000
  H   H337      1.0  0.07581838594846382  0.5521430197958416  0.18718752954049309  1.0000
  H   H338      1.0  0.07167245792646662  0.633538257871487  0.20428976320578507  1.0000
  H   H339      1.0  0.129957961958435  0.6302027670010503  0.2774675661106992  1.0000
  H   H340      1.0  0.13647044522948673  0.5481427576565521  0.25357364601483995  1.0000
  C   C535      1.0  0.10132369060935668  0.6640436083821399  0.3376569426800144  1.0000
  C   C536      1.0  0.10301271252529812  0.6987808850963038  0.30808128326529016  1.0000
  C   C537      1.0  0.10970650395977784  0.742589120912448  0.32180719539816766  1.0000
  C   C538      1.0  0.11717382330745556  0.7493941138548769  0.36173678356510347  1.0000
  C   C539      1.0  0.11732105699463684  0.713061446817425  0.38985730293612186  1.0000
  C   C540      1.0  0.10858305715308104  0.6704971043755625  0.3774563862944893  1.0000
  C   C541      1.0  0.0947706239937513  0.6896657929420719  0.2614371657953174  1.0000
  C   C542      1.0  0.06936176592134632  0.7046119225450042  0.2659500830858906  1.0000
  C   C543      1.0  0.06299034556387449  0.7500228855669449  0.25801870221734413  1.0000
  C   C544      1.0  0.04105789290642287  0.7598363972617386  0.2547681870856419  1.0000
  C   C545      1.0  0.025311775357648638  0.7270950103472635  0.2639269550310875  1.0000
  C   C546      1.0  0.03191381880471755  0.6834574486681951  0.27604713128098296  1.0000
  C   C547      1.0  0.053625459641058554  0.6717850787490619  0.2774151984217328  1.0000
  C   C548      1.0  0.13039502895735697  0.7293737470413082  0.23261448557697426  1.0000
  C   C549      1.0  0.1414574174083992  0.75518790769318  0.20425815667161598  1.0000
  C   C550      1.0  0.13247275726921992  0.7655661756499714  0.1662389046140171  1.0000
  C   C551      1.0  0.11090608981781118  0.7518202022712531  0.1588652861131603  1.0000
  C   C552      1.0  0.0988082775257868  0.7276509858820454  0.18796157975965347  1.0000
  C   C553      1.0  0.10828569506972  0.7167557289734311  0.22640380161275034  1.0000
  C   C554      1.0  0.14562976914567113  0.7960266993844461  0.1330244654860822  1.0000
  C   C555      1.0  0.12986938612929258  0.9354171850443136  0.1828125035019321  1.0000
  C   C556      1.0  0.14901743250035202  0.9128383082685676  0.19417195385589534  1.0000
  C   C557      1.0  0.15353698250446726  0.869561998901755  0.17815921601549045  1.0000
  C   C558      1.0  0.14013024445780162  0.8479021734240746  0.14892100283321846  1.0000
  C   C559      1.0  0.12071485429305927  0.8711418980159714  0.1377347686812211  1.0000
  C   C560      1.0  0.11568327175113405  0.9144318199683908  0.15470530845414188  1.0000
  C   C561      1.0  0.1388630429204101  0.7861525655586545  0.08569089175604873  1.0000
  C   C562      1.0  0.1353069699939246  0.7394361461014503  0.0736655351086605  1.0000
  C   C563      1.0  0.12774493621753039  0.7294877433881083  0.03475975075441716  1.0000
  C   C564      1.0  0.12338910901320664  0.7646740563658703  0.007224448054298016  1.0000
  C   C565      1.0  0.1290008377442279  0.8109977842669364  0.017006236564452944  1.0000
  C   C566      1.0  0.13746851904552776  0.8207426248210907  0.05518469879122902  1.0000
  C   C567      1.0  0.18575022275952413  0.8240081887537101  0.11595569756285165  1.0000
  C   C568      1.0  0.20835162209961394  0.8194167917676815  0.11605950333683832  1.0000
  C   C569      1.0  0.21816620145301274  0.7797898557014943  0.12956788814631684  1.0000
  C   C570      1.0  0.20488893714749673  0.7413673909559088  0.1385128471841481  1.0000
  C   C571      1.0  0.18181640431629104  0.7455190730875583  0.13897826889318687  1.0000
  C   C572      1.0  0.17188079514103516  0.7874433210490286  0.12946904026004297  1.0000
  H   H341      1.0  0.09436452161530132  0.6300751663479366  0.33209171372240015  1.0000
  H   H342      1.0  0.10903895790642908  0.7719049632610887  0.3005899149312545  1.0000
  H   H343      1.0  0.12140663299544992  0.785013281187386  0.37070436296562437  1.0000
  H   H344      1.0  0.10700431901166553  0.640274465140139  0.3981989490129022  1.0000
  H   H345      1.0  0.0744357364535035  0.7770655278476293  0.2488354547013166  1.0000
  H   H346      1.0  0.035623844935978956  0.7943637103167712  0.24558555930557843  1.0000
  H   H347      1.0  0.01956896270233805  0.657042660509701  0.2807989567857165  1.0000
  H   H348      1.0  0.05816490450277303  0.6349216190171807  0.28294665176930356  1.0000
  H   H349      1.0  0.13896752229048  0.7195346071805571  0.26049671646979633  1.0000
  H   H350      1.0  0.15859093909434008  0.764705012433071  0.2108335552507125  1.0000
  H   H351      1.0  0.10270139605183234  0.76072081393772  0.13070231482860112  1.0000
  H   H352      1.0  0.08184455797117304  0.7195829930628488  0.17991089971801788  1.0000
  H   H353      1.0  0.1597679749219183  0.9267731291747646  0.21863634090670825  1.0000
  H   H354      1.0  0.16811877319685212  0.8529770546194477  0.18980064623311896  1.0000
  H   H355      1.0  0.10948615825305626  0.8557714575926938  0.11595941597863624  1.0000
  H   H356      1.0  0.10105382554341356  0.9341028823789835  0.14425996864722554  1.0000
  H   H357      1.0  0.13760788031264312  0.7113535469357031  0.09642812720205597  1.0000
  H   H358      1.0  0.12322180162933681  0.6943991744357059  0.026333727626124674  1.0000
  H   H359      1.0  0.12884164393073366  0.8390120763792867  0.9932477309825739  1.0000
  H   H360      1.0  0.14117496027023782  0.8567491811322885  0.06271449075503889  1.0000
  H   H361      1.0  0.17910308965482272  0.8570693405821959  0.10712260086654035  1.0000
  H   H362      1.0  0.21870499246644845  0.8487060100786397  0.10662061473561969  1.0000
  H   H363      1.0  0.2127762234485435  0.7086440520509206  0.14667043167959085  1.0000
  H   H364      1.0  0.17212883222838485  0.7146830614472044  0.14828484386607027  1.0000
  C   C573      1.0  0.1108078692887094  0.553881030650211  0.723461172410925  1.0000
  C   C574      1.0  0.09340822609458868  0.5796119280383077  0.7077136815631547  1.0000
  C   C575      1.0  0.09026159340228383  0.6246472609452617  0.7210999783877056  1.0000
  C   C576      1.0  0.10443059840881391  0.6461244882242494  0.749886713920131  1.0000
  C   C577      1.0  0.12271162032788135  0.6213935943840531  0.7622721371626612  1.0000
  C   C578      1.0  0.12537986684187805  0.5750743645295421  0.7503979960905132  1.0000
  H   H365      1.0  0.08236314740166224  0.5648960006271778  0.6846285169004453  1.0000
  H   H366      1.0  0.07629742663169671  0.6426218680106746  0.70731085318649  1.0000
  H   H367      1.0  0.13531307060566108  0.6378017338813398  0.7827637068156136  1.0000
  H   H368      1.0  0.1404453823153235  0.5588301782505962  0.7625789064648903  1.0000
  C   C579      1.0  0.10686630770894563  0.6764842138631665  0.8414960841333308  1.0000
  C   C580      1.0  0.10643216187296045  0.7100482853655933  0.8097934908898168  1.0000
  C   C581      1.0  0.11288456236179659  0.7543537597493005  0.8202360418848947  1.0000
  C   C582      1.0  0.12130178596353983  0.7646222965070613  0.858681362417812  1.0000
  C   C583      1.0  0.12205045752508525  0.7303664384128433  0.888716865917898  1.0000
  C   C584      1.0  0.11385041714445895  0.6870125791219309  0.8806324102662191  1.0000
  C   C585      1.0  0.09903476607019539  0.6981944033074686  0.7634744249330142  1.0000
  C   C586      1.0  0.07286606765720821  0.7096638527269729  0.767499610019841  1.0000
  C   C587      1.0  0.06522448110054219  0.7530469097835087  0.7583244190713467  1.0000
  C   C588      1.0  0.043052480463493505  0.7618889092320102  0.7576551042301193  1.0000
  C   C589      1.0  0.02836416620565655  0.727139087960726  0.7690241604915259  1.0000
  C   C590      1.0  0.0359354250225487  0.6863294813270221  0.7855897028119077  1.0000
  C   C591      1.0  0.058195368978062385  0.6777476319318307  0.7862652150127762  1.0000
  C   C592      1.0  0.13435559029657243  0.7395630040539708  0.7318988775621408  1.0000
  C   C593      1.0  0.14567511976458827  0.7609381168070897  0.7011351843042376  1.0000
  C   C594      1.0  0.13528234407992815  0.7708871776575832  0.6637682043488535  1.0000
  C   C595      1.0  0.11331290625301306  0.7550907032825285  0.6583486133428027  1.0000
  C   C596      1.0  0.10251566052092728  0.731771602504863  0.688839622776502  1.0000
  C   C597      1.0  0.11242616428678846  0.7254251533111279  0.7280348238259798  1.0000
  C   C598      1.0  0.1467746849242182  0.8017320798164315  0.6280404260185128  1.0000
  C   C599      1.0  0.1258790722956883  0.9350592041513002  0.6831535453058885  1.0000
  C   C600      1.0  0.14662933742835102  0.9173897378677309  0.6909777118526456  1.0000
  C   C601      1.0  0.1528579787231421  0.8763226643131072  0.671874350759276  1.0000
  C   C602      1.0  0.13979798405426966  0.851782353673116  0.6452442963819172  1.0000
  C   C603      1.0  0.11864841742489692  0.8704493514802927  0.6393227192449458  1.0000
  C   C604      1.0  0.11163861769075537  0.9113727183623139  0.6575057724316273  1.0000
  C   C605      1.0  0.13941694455752193  0.790180584248222  0.5816222023074544  1.0000
  C   C606      1.0  0.13797108815151385  0.7437701064371862  0.5694134038146927  1.0000
  C   C607      1.0  0.12913210703890293  0.7314588922306212  0.5312345697463382  1.0000
  C   C608      1.0  0.12387909655221728  0.7652220365174076  0.5023331830605544  1.0000
  C   C609      1.0  0.1268327966814198  0.8113065983753902  0.5123419188807625  1.0000
  C   C610      1.0  0.13468466436916562  0.8237403806664259  0.5515371199302403  1.0000
  C   C611      1.0  0.18609535639263936  0.8323373237005864  0.6085621246668631  1.0000
  C   C612      1.0  0.20887052050055646  0.8314616807821412  0.6091229857143732  1.0000
  C   C613      1.0  0.2195279075232029  0.7922382382769088  0.6243313062733769  1.0000
  C   C614      1.0  0.20725594980652728  0.7545309873006093  0.6374604126728264  1.0000
  C   C615      1.0  0.18440280037301646  0.7567708398996355  0.6365494008056001  1.0000
  C   C616      1.0  0.17328164788333034  0.7962038131767256  0.6243313062733769  1.0000
  H   H369      1.0  0.10070715789315009  0.6414501857097844  0.8367086238106614  1.0000
  H   H370      1.0  0.11071968871833675  0.7826118369073165  0.7981145666463602  1.0000
  H   H371      1.0  0.12743875600491208  0.7997786584918762  0.8649840771727048  1.0000
  H   H372      1.0  0.11413013597381046  0.6597700653466444  0.9036896868105438  1.0000
  H   H373      1.0  0.07647039159258974  0.7805464137086082  0.7494900829031073  1.0000
  H   H374      1.0  0.03663683039228344  0.7951752610432335  0.7483900515668306  1.0000
  H   H375      1.0  0.025337498261874675  0.6601677854734245  0.7978914616992844  1.0000
  H   H376      1.0  0.06360883676643328  0.6432162975424496  0.7965249438984449  1.0000
  H   H377      1.0  0.14321273323227235  0.7299277098131328  0.7599047457798006  1.0000
  H   H378      1.0  0.16202173505649545  0.7725611197918136  0.7075711422914117  1.0000
  H   H379      1.0  0.10452859051538013  0.7622692788988598  0.6289111550480727  1.0000
  H   H380      1.0  0.0857183759481035  0.7201489094325431  0.6817436459875619  1.0000
  H   H381      1.0  0.15822966549104187  0.9376551778457657  0.7099602244330157  1.0000
  H   H382      1.0  0.16884365128711337  0.864692358744554  0.6809906667911809  1.0000
  H   H383      1.0  0.10720542468047156  0.8523921675256539  0.6193362344027343  1.0000
  H   H384      1.0  0.09511132944248765  0.9230682223853633  0.6517918068426293  1.0000
  H   H385      1.0  0.14198573534608877  0.7169428211076566  0.5916402341671241  1.0000
  H   H386      1.0  0.12697486726585364  0.6943098216989021  0.5235994226686315  1.0000
  H   H387      1.0  0.12333031854836916  0.840348152398017  0.49128019214083835  1.0000
  H   H388      1.0  0.13690215598523567  0.8601689608765251  0.5587384518330776  1.0000
  H   H389      1.0  0.17787190383771104  0.86170920876935  0.5952718869167476  1.0000
  H   H390      1.0  0.21784933904830686  0.8629379101687544  0.5990026974206271  1.0000
  H   H391      1.0  0.2152820331990423  0.7225274586559376  0.6475001352912396  1.0000
  H   H392      1.0  0.1756716519509192  0.7247156469622315  0.6443115937559473  1.0000
  C   C617      1.0  0.3802415359681031  0.5498699128325929  0.9776830622442131  1.0000
  C   C618      1.0  0.3977734879311562  0.5743061335984632  0.9938922563852376  1.0000
  C   C619      1.0  0.40158953602977027  0.6197128232431331  0.9800876377849195  1.0000
  C   C620      1.0  0.3881581945660956  0.6411189942263916  0.9505634164552156  1.0000
  C   C621      1.0  0.37050256006793947  0.6151071036942436  0.9358229965491071  1.0000
  C   C622      1.0  0.36679676426041946  0.5705829018907485  0.9494633851189387  1.0000
  H   H393      1.0  0.4081757396897082  0.5589513166746393  0.01792868256021696  1.0000
  H   H394      1.0  0.4152615247972268  0.6371719522267011  0.9934522438507267  1.0000
  H   H395      1.0  0.3602266949535439  0.629651365131505  0.9127130424478337  1.0000
  H   H396      1.0  0.35324560404440924  0.550950719249244  0.9370035935607167  1.0000
  C   C623      1.0  0.38718703583907604  0.67574156566702  0.8583033234797113  1.0000
  C   C624      1.0  0.38655010425668396  0.7072257652071388  0.8911059480595019  1.0000
  C   C625      1.0  0.3811893134423262  0.7533480197096537  0.880737765380116  1.0000
  C   C626      1.0  0.3740533569864529  0.7666057802360702  0.8422242738911477  1.0000
  C   C627      1.0  0.37397327265097474  0.7340908695699742  0.8107974631516581  1.0000
  C   C628      1.0  0.38106636684852546  0.6892425443584106  0.8184202155100828  1.0000
  C   C629      1.0  0.39437480928789886  0.6941475789782452  0.9365109034692576  1.0000
  C   C630      1.0  0.4202104156932419  0.7066409160957832  0.9312307530551291  1.0000
  C   C631      1.0  0.4278212865603729  0.7525981921387467  0.9352962209796225  1.0000
  C   C632      1.0  0.4498753110230644  0.7635958521257121  0.9333285592936063  1.0000
  C   C633      1.0  0.4652731486598169  0.7289156736366286  0.9236606782536528  1.0000
  C   C634      1.0  0.4579806779446204  0.6833286975453341  0.9171162664727613  1.0000
  C   C635      1.0  0.43566330800799896  0.6733185505007968  0.9198616967937224  1.0000
  C   C636      1.0  0.3601895567192107  0.7314775459265129  0.9706831445297084  1.0000
  C   C637      1.0  0.3498017845356992  0.7564450972567736  0.0008487925822553422  1.0000
  C   C638      1.0  0.36105246203642116  0.7697191145185235  0.03674693412330246  1.0000
  C   C639      1.0  0.3830113108165253  0.7585520555564347  0.04010125502899143  1.0000
  C   C640      1.0  0.39344818703724427  0.7356521693851011  0.008862720075395252  1.0000
  C   C641      1.0  0.3825086402136307  0.7218013644876672  0.9734595616488744  1.0000
  C   C642      1.0  0.35023507697515194  0.8001610551592955  0.07305726425989675  1.0000
  C   C643      1.0  0.3657895479544176  0.9371015393467871  0.017262869227186582  1.0000
  C   C644      1.0  0.3465518408111815  0.9132283101378644  0.007478787693964484  1.0000
  C   C645      1.0  0.3416255844849998  0.8710820982664663  0.025502351830285094  1.0000
  C   C646      1.0  0.3557607582138314  0.8504358244439515  0.05389409864599165  1.0000
  C   C647      1.0  0.3756608031239211  0.8732163765123577  0.062254646669677005  1.0000
  C   C648      1.0  0.3805956428976531  0.916012739696256  0.044723245849246085  1.0000
  C   C649      1.0  0.3586147301083567  0.7896879311672027  0.11842596511575257  1.0000
  C   C650      1.0  0.3620180403770167  0.7430940368439295  0.1299697869190354  1.0000
  C   C651      1.0  0.37107340442156617  0.7325473847660141  0.16721436902150982  1.0000
  C   C652      1.0  0.3755957662715101  0.7668708522508008  0.1953435646960256  1.0000
  C   C653      1.0  0.3712363213033758  0.8136573236327788  0.18546063527652962  1.0000
  C   C654      1.0  0.36193146538238025  0.8244997100637647  0.14730968932655955  1.0000
  C   C655      1.0  0.3111898495270546  0.8277206308219027  0.09351784711464435  1.0000
  C   C656      1.0  0.2885436187806645  0.8204590015558725  0.09768216292541146  1.0000
  C   C657      1.0  0.2785616704365201  0.7781323756400355  0.08814132775809845  1.0000
  C   C658      1.0  0.2920512343288402  0.7420049627465304  0.07595019174031359  1.0000
  C   C659      1.0  0.31442624241589384  0.74810246735136  0.07278148175587246  1.0000
  C   C660      1.0  0.32471650673505087  0.7917450768302792  0.07985948620185374  1.0000
  H   H397      1.0  0.3943139315352666  0.6413217896041997  0.8630783890830985  1.0000
  H   H398      1.0  0.38124058335930083  0.781025924747204  0.9037547590867744  1.0000
  H   H399      1.0  0.3690509199469326  0.8028856039757664  0.8367984855254559  1.0000
  H   H400      1.0  0.3827176779445169  0.6639701956234298  0.7934882376743568  1.0000
  H   H401      1.0  0.4158249805814567  0.7802748638115277  0.9384785651552737  1.0000
  H   H402      1.0  0.45456583366023773  0.8009204234539755  0.9340691437707053  1.0000
  H   H403      1.0  0.46959871830074973  0.6546453211156855  0.9091061791367742  1.0000
  H   H404      1.0  0.43074191212239776  0.6380813127026743  0.9135961661966756  1.0000
  H   H405      1.0  0.35133683684188793  0.7190099092487934  0.9436905446133511  1.0000
  H   H406      1.0  0.3325833204696661  0.7669760012741041  0.9971427715169399  1.0000
  H   H407      1.0  0.39306346642915474  0.7697900116279521  0.06544845596066419  1.0000
  H   H408      1.0  0.41078225553664044  0.7278039113379718  0.01201931422173825  1.0000
  H   H409      1.0  0.33452376010132334  0.9284305481299879  0.9864430300967606  1.0000
  H   H410      1.0  0.3262169750167676  0.8535055434362204  0.015144208873517556  1.0000
  H   H411      1.0  0.3882310196550246  0.8552953111494842  0.08181010514885716  1.0000
  H   H412      1.0  0.39563628657822214  0.9345046438515114  0.05231625088139412  1.0000
  H   H413      1.0  0.3577460180029563  0.7157142427755753  0.10847207592836718  1.0000
  H   H414      1.0  0.3744683302634367  0.6961430889447959  0.17567872281918184  1.0000
  H   H415      1.0  0.3724481891804643  0.8413006827953704  0.20717866240243524  1.0000
  H   H416      1.0  0.3585527375588709  0.8610576340910769  0.14109714615444335  1.0000
  H   H417      1.0  0.3182231363155015  0.8615681409444632  0.1020692738152724  1.0000
  H   H418      1.0  0.27849087597629363  0.848905932866879  0.10761157254221491  1.0000
  H   H419      1.0  0.28469854856080906  0.709039409685591  0.06836493340771681  1.0000
  H   H420      1.0  0.3244931482845468  0.7188085393797186  0.062302056470930636  1.0000
  C   C661      1.0  0.386325834391357  0.5663175538970796  0.4872828951723961  1.0000
  C   C662      1.0  0.4065179135968338  0.5877591675139527  0.49458338482948916  1.0000
  C   C663      1.0  0.4102925148289595  0.6328177041016394  0.4810142658955288  1.0000
  C   C664      1.0  0.39491164845592813  0.656840466946754  0.4568476619754658  1.0000
  C   C665      1.0  0.3746765022695229  0.6340487758110548  0.44974858650670513  1.0000
  C   C666      1.0  0.3700572101957267  0.5899208233971289  0.46554255755178287  1.0000
  H   H421      1.0  0.41861618084606944  0.567568279507298  0.5114928806099461  1.0000
  H   H422      1.0  0.4252724539500066  0.6501660921317662  0.4906356667381748  1.0000
  H   H423      1.0  0.3610315507112553  0.650111938624617  0.4337624973127565  1.0000
  H   H424      1.0  0.35452119646056873  0.573393422537773  0.45945365170450453  1.0000
  C   C667      1.0  0.39133305893578263  0.6758820943589966  0.3643551680134242  1.0000
  C   C668      1.0  0.39058324739102346  0.7129762348104065  0.3916421425127286  1.0000
  C   C669      1.0  0.38433171809615746  0.7569033640896348  0.37677467673397974  1.0000
  C   C670      1.0  0.37849536975856574  0.7625543728871518  0.3362067605240213  1.0000
  C   C671      1.0  0.3778955658439549  0.724626599557798  0.3098574465383996  1.0000
  C   C672      1.0  0.38472098438711455  0.6816104080996993  0.3238678174787987  1.0000
  C   C673      1.0  0.3988661996244095  0.7079411309696059  0.43825248437265796  1.0000
  C   C674      1.0  0.42432971725853874  0.7231490666539431  0.4317576514688944  1.0000
  C   C675      1.0  0.4314822160752415  0.7692329632524647  0.4356960735207472  1.0000
  C   C676      1.0  0.45333312138272486  0.780986660758621  0.4333286821378868  1.0000
  C   C677      1.0  0.4684717966948548  0.7476814423901669  0.4228768351033474  1.0000
  C   C678      1.0  0.46200821270010506  0.7026106659198074  0.417590487329578  1.0000
  C   C679      1.0  0.44002714259408776  0.6909240568973153  0.4193350440685183  1.0000
  C   C680      1.0  0.3643568694609795  0.7480400423199427  0.46777670570236185  1.0000
  C   C681      1.0  0.35333419362045576  0.7715413361034634  0.4984970174427779  1.0000
  C   C682      1.0  0.36363737708144533  0.782225172601384  0.5359600564725975  1.0000
  C   C683      1.0  0.38578363040391794  0.7720001371898338  0.5396381894195285  1.0000
  C   C684      1.0  0.39690127298671685  0.7470852919235788  0.509531416283571  1.0000
  C   C685      1.0  0.3859972629908177  0.7362955995263641  0.4728957247658244  1.0000
  C   C686      1.0  0.35270369939120655  0.8124913822275066  0.5721681301751154  1.0000
  C   C687      1.0  0.37096918062695594  0.9501138721223527  0.5238968959313992  1.0000
  C   C688      1.0  0.35114057744010374  0.9301964036578552  0.5125526291085564  1.0000
  C   C689      1.0  0.34508257050053337  0.8872851098440775  0.5277764430666625  1.0000
  C   C690      1.0  0.35847862911375505  0.8645645482183935  0.5563710604502171  1.0000
  C   C691      1.0  0.37842019145525124  0.8860430115769601  0.5675510972425735  1.0000
  C   C692      1.0  0.38492527202559007  0.9274892773086991  0.5502635625240158  1.0000
  C   C693      1.0  0.35998154136494254  0.7987768424480183  0.6176443552207425  1.0000
  C   C694      1.0  0.3652631561241295  0.7520222868659966  0.6269403946822362  1.0000
  C   C695      1.0  0.3736530221866171  0.7402518395401467  0.6649797881586682  1.0000
  C   C696      1.0  0.37656340366626584  0.7734105132148382  0.695529672508957  1.0000
  C   C697      1.0  0.37058020316075363  0.8191451779503464  0.6870268950815108  1.0000
  C   C698      1.0  0.362314573943266  0.831790898627737  0.649213705231975  1.0000
  C   C699      1.0  0.31342747679214994  0.8384162434728588  0.5925636407536325  1.0000
  C   C700      1.0  0.2906589667280182  0.8346964914962305  0.5931337978406042  1.0000
  C   C701      1.0  0.2812709857605896  0.791859522945464  0.5848355332813108  1.0000
  C   C702      1.0  0.29436886887372327  0.754110709656812  0.5741729760189774  1.0000
  C   C703      1.0  0.31682411924164583  0.7588196405369134  0.5708325991724809  1.0000
  C   C704      1.0  0.326816619619069  0.8022934238694112  0.5780773125928048  1.0000
  H   H425      1.0  0.3969292746105459  0.6405213521243139  0.3740416411323006  1.0000
  H   H426      1.0  0.3840958195773574  0.7867650863200603  0.39842515263979855  1.0000
  H   H427      1.0  0.3730277488834454  0.796491283160115  0.3265667676024524  1.0000
  H   H428      1.0  0.385049732082597  0.6500460610457395  0.30452554817126887  1.0000
  H   H429      1.0  0.4199869824271218  0.7967779754168632  0.4422497813411002  1.0000
  H   H430      1.0  0.45836660006860364  0.8166811990254828  0.4390085622488594  1.0000
  H   H431      1.0  0.4744051590614722  0.6769335357467271  0.4086755854860056  1.0000
  H   H432      1.0  0.4351363918809803  0.655273215874822  0.41043873430386885  1.0000
  H   H433      1.0  0.3554294428444617  0.7401537847745667  0.43955392989726705  1.0000
  H   H434      1.0  0.3361013264941183  0.7794544318891271  0.4920238752977579  1.0000
  H   H435      1.0  0.39521432416876134  0.7824634156981328  0.5676471563170089  1.0000
  H   H436      1.0  0.414368090410656  0.7391595698885459  0.5129461614457597  1.0000
  H   H437      1.0  0.340955850041408  0.9484001240412251  0.4899973386951523  1.0000
  H   H438      1.0  0.329730376767928  0.8726052409913022  0.5177429178078904  1.0000
  H   H439      1.0  0.38897976499286346  0.865115874410557  0.5876398385188614  1.0000
  H   H440      1.0  0.40117122053701737  0.9417244323274027  0.556538389160524  1.0000
  H   H441      1.0  0.3620381454221597  0.7251392580576699  0.6031673230993763  1.0000
  H   H442      1.0  0.3784026637054394  0.704260315233233  0.6703590963270526  1.0000
  H   H443      1.0  0.37258493120379116  0.8456239688259536  0.7106853155110121  1.0000
  H   H444      1.0  0.357281796140072  0.8684229468103456  0.6423687215084951  1.0000
  H   H445      1.0  0.31970643216383104  0.872999945574147  0.5980576000753752  1.0000
  H   H446      1.0  0.2808738046530422  0.865073512050074  0.6029875996697873  1.0000
  H   H447      1.0  0.28744216375032183  0.7191438601963384  0.5685705629035174  1.0000
  H   H448      1.0  0.32624724266363725  0.7289872628910156  0.5615582504697305  1.0000
  C   C705      1.0  0.36560607399019357  0.7469923601272989  0.7673446760288162  1.0000
  C   C706      1.0  0.38529736220531124  0.7611066306172953  0.7390692226667728  1.0000
  H   H449      1.0  0.35604137963016336  0.7186077640677054  0.7519411386411211  1.0000
  H   H450      1.0  0.353560913303886  0.7777867319541173  0.7718470578079996  1.0000
  H   H451      1.0  0.39601097561088555  0.7308392976057171  0.7352020702507914  1.0000
  H   H452      1.0  0.3958760031071401  0.7885992105854275  0.7524679142106058  1.0000
  C   C707      1.0  0.3687115519589195  0.731379700654532  0.26563587695209206  1.0000
  C   C708      1.0  0.3859667908542273  0.7549794826162278  0.23634870462865626  1.0000
  H   H453      1.0  0.35416008822402234  0.7546701959246799  0.26611741179619747  1.0000
  H   H454      1.0  0.36276397592998916  0.6965740039086564  0.2537474819527699  1.0000
  H   H455      1.0  0.3997757878138638  0.7294201622419428  0.23109675220089437  1.0000
  H   H456      1.0  0.39455304513941264  0.7853684502311297  0.2507073671808794  1.0000
  C   C709      1.0  0.24468811586263506  0.7919911320544699  0.6264941847880844  1.0000
  C   C710      1.0  0.25606966559974215  0.786607738792426  0.583785080822162  1.0000
  H   H457      1.0  0.25085219269759246  0.8240533091285381  0.6412934796107823  1.0000
  H   H458      1.0  0.2505580803555705  0.7635188518287004  0.6480888844571342  1.0000
  H   H459      1.0  0.2508317028036775  0.7533850956630439  0.5696767915994351  1.0000
  H   H460      1.0  0.24923308216008097  0.81456663367372  0.56242588081947  1.0000
  C   C711      1.0  0.11319675698253066  0.753438789695551  0.9644486007308666  1.0000
  C   C712      1.0  0.13092403682017373  0.7414269108694592  0.9326685404918402  1.0000
  H   H461      1.0  0.10155302200456856  0.7236141524499492  0.9686380158481797  1.0000
  H   H462      1.0  0.10325604135723376  0.7843805606240086  0.9545204305859912  1.0000
  H   H463      1.0  0.1412986390770027  0.7125161750422287  0.9446635300769876  1.0000
  H   H464      1.0  0.1419402679249989  0.7732828960386677  0.9298797286533921  1.0000
  C   C713      1.0  0.11276688606917584  0.7528874005168027  0.46162582625867354  1.0000
  C   C714      1.0  0.12680340728398903  0.7188239815271769  0.4337191157952695  1.0000
  H   H465      1.0  0.09637795340101334  0.7379117434089756  0.4675876862333115  1.0000
  H   H466      1.0  0.108166497480795  0.7856361053315122  0.4443692783383208  1.0000
  H   H467      1.0  0.12838840018482003  0.6838300749181823  0.4483046017103531  1.0000
  H   H468      1.0  0.14386835576057172  0.7331334377341603  0.43149736236397257  1.0000
  C   C715      1.0  0.24334050649547656  0.7759322866299959  0.1316489615137632  1.0000
  C   C716      1.0  0.2534405195551341  0.7741425771023954  0.08732048747364857  1.0000
  H   H469      1.0  0.24941453491291177  0.8070016683893507  0.14943321460754677  1.0000
  H   H470      1.0  0.24853051637798482  0.7447442230018186  0.14949456846799264  1.0000
  H   H471      1.0  0.24813022764070644  0.7421624840635138  0.0699108647701632  1.0000
  H   H472      1.0  0.24739866690947943  0.8035420733116065  0.0676367436498998  1.0000
  C   C717      1.0  0.9896628010451609  0.7311219627259308  0.7995647488023532  1.0000
  C   C718      1.0  0.003745478204162409  0.733239402729016  0.7598706603017752  1.0000
  H   H473      1.0  0.9963223427573238  0.7561986014834164  0.8220208814615014  1.0000
  H   H474      1.0  0.9910351432023703  0.6955512535530772  0.8146770102869214  1.0000
  H   H475      1.0  0.0001390255875093364  0.7668847624663626  0.7422267774038602  1.0000
  H   H476      1.0  0.9989807685590886  0.7052764548514375  0.737451711800473  1.0000
  C   C719      1.0  0.0008593963613366374  0.7369467851198782  0.2540588992747299  1.0000
  C   C720      1.0  0.9853779565800909  0.7312233450453843  0.29165394206490264  1.0000
  H   H477      1.0  0.998427194045387  0.7730954795097176  0.24338828544486338  1.0000
  H   H478      1.0  0.9953930928047002  0.7136191134916721  0.22793207050021988  1.0000
  H   H479      1.0  0.9920027723565382  0.7508272858482581  0.31933754758123084  1.0000
  H   H480      1.0  0.9859539197843314  0.6941612784552742  0.30087902175850695  1.0000
  C   C721      1.0  0.8779748909260343  0.7077162904431713  0.9545297266254529  1.0000
  C   C722      1.0  0.8588068439767885  0.7111622841352115  0.9230378436097327  1.0000
  H   H481      1.0  0.8878311318177629  0.7411007965731681  0.9533522282936636  1.0000
  H   H482      1.0  0.8891548986449899  0.6788749485952257  0.946017653158545  1.0000
  H   H483      1.0  0.845702926821033  0.7357809393746126  0.9325600866981228  1.0000
  H   H484      1.0  0.8499835482420539  0.6771466190911403  0.9207107350645388  1.0000
  C   C723      1.0  0.8649684393234858  0.7278902721339952  0.4270662502206605  1.0000
  C   C724      1.0  0.883969833061942  0.7086757584780055  0.45350108776932807  1.0000
  H   H485      1.0  0.8514686350436717  0.7015845197506586  0.424218563465623  1.0000
  H   H486      1.0  0.8575433013863595  0.7583491596778769  0.44225907738056175  1.0000
  H   H487      1.0  0.8975614244595784  0.7341564493946663  0.45400617258006926  1.0000
  H   H488      1.0  0.8909328159011234  0.6774397632112285  0.43865841142914314  1.0000
  C   C725      1.0  0.5081806648332159  0.7466524279148435  0.3906908478078358  1.0000
  C   C726      1.0  0.49327621509315883  0.7581310722575604  0.4275434469130172  1.0000
  H   H489      1.0  0.5027385266313127  0.7663878687772007  0.3629328739758157  1.0000
  H   H490      1.0  0.5053234578185584  0.7103052283988225  0.3823770898494399  1.0000
  H   H491      1.0  0.49575339496665444  0.795870435865268  0.43586959959069504  1.0000
  H   H492      1.0  0.4989899331564345  0.7405502356125157  0.4562527154499302  1.0000
  C   C727      1.0  0.7461574782157729  0.7137830505204898  0.5601235617128401  1.0000
  C   C728      1.0  0.7562913326139304  0.7160686702117807  0.6039977692912697  1.0000
  H   H493      1.0  0.7505251416340397  0.7475863029267427  0.5431365989368706  1.0000
  H   H494      1.0  0.7544504953818759  0.6870948659719097  0.5406700497997543  1.0000
  H   H495      1.0  0.7482062906932487  0.6900011955148697  0.6252764036186287  1.0000
  H   H496      1.0  0.7529189441024801  0.7510383793833668  0.6184840974520973  1.0000
  C   C729      1.0  0.5026733926829229  0.7309531893884356  0.8819772373083152  1.0000
  C   C730      1.0  0.49021612118830143  0.7405385337025161  0.9229138964169128  1.0000
  H   H497      1.0  0.4970986130226487  0.7527413655654469  0.8549939334314195  1.0000
  H   H498      1.0  0.5010024688303959  0.6937037602314075  0.8709490358271631  1.0000
  H   H499      1.0  0.4925311150308264  0.7786339123264174  0.9292352032507285  1.0000
  H   H500      1.0  0.49832748390020526  0.7228185855664103  0.9484036366203284  1.0000
  C   C731      1.0  0.6354018272027634  0.7263406707560632  0.7548600950320301  1.0000
  C   C732      1.0  0.618322808515999  0.7087778516899917  0.7227360813329285  1.0000
  H   H501      1.0  0.6495587214872149  0.7016490386973222  0.7585010438211152  1.0000
  H   H502      1.0  0.6436264525098081  0.7589774040276732  0.74396823546298  1.0000
  H   H503      1.0  0.6051533215859375  0.7355156113036705  0.718968086671203  1.0000
  H   H504      1.0  0.6100109214770258  0.6764219661985168  0.734476979172795  1.0000
  C   C733      1.0  0.6356930104715384  0.7362678411341441  0.25498943282482545  1.0000
  C   C734      1.0  0.6180386422933781  0.7128457618588471  0.22777000954560783  1.0000
  H   H505      1.0  0.6416255344643851  0.7694869808942049  0.23912326253993008  1.0000
  H   H506      1.0  0.6507157103738131  0.7141289672613308  0.25767908690901764  1.0000
  H   H507      1.0  0.6118182637328081  0.6802854707226501  0.24057995192354614  1.0000
  H   H508      1.0  0.6039083001036477  0.7371282153892205  0.22704925661936  1.0000
  C   C735      1.0  0.739091530403583  0.716589101366889  0.06465891234240133  1.0000
  C   C736      1.0  0.7481561915753339  0.7183683670203732  0.10876830971920677  1.0000
  H   H509      1.0  0.742879240362126  0.7491479763244151  0.04737788485146663  1.0000
  H   H510      1.0  0.7475396627906579  0.6873152978178413  0.04875617763562409  1.0000
  H   H511      1.0  0.7391355030762893  0.694431926774474  0.128784851755677  1.0000
  H   H512      1.0  0.745646826491946  0.7539685630081299  0.1207034947838185  1.0000
  C   C737      1.0  0.37586303178910696  0.500103843608092  0.9916147267171715  1.0000
  C   C738      1.0  0.3734717795505181  0.46332606288464956  0.9569312034863388  1.0000
  H   H513      1.0  0.3892830712981346  0.488951764317266  0.012203530737066851  1.0000
  H   H514      1.0  0.3605993485276697  0.5007152466171596  0.011458856002604796  1.0000
  H   H515      1.0  0.3571610446140799  0.4640994914082636  0.9419552839138723  1.0000
  H   H516      1.0  0.384718696326415  0.4695471376524553  0.9301833992758008  1.0000
  C   C739      1.0  0.3703664825137582  0.9862616972384183  0.9493301418866574  1.0000
  C   C740      1.0  0.36962375959921007  0.9852228802404748  0.9979174414720643  1.0000
  H   H517      1.0  0.36008643036857046  0.9585059652470886  0.9348314190065478  1.0000
  H   H518      1.0  0.38739007811841336  0.9762497671737497  0.9408986340950826  1.0000
  H   H519      1.0  0.3559910344035129  0.006884519080985364  0.007801979999242414  1.0000
  H   H520      1.0  0.38459511513943834  0.0024040534429463738  0.011984732954941494  1.0000
  C   C741      1.0  0.3764481136809336  0.4807191055839117  0.4671476736988008  1.0000
  C   C742      1.0  0.38197422606989423  0.5165830346885989  0.5014066777942255  1.0000
  H   H521      1.0  0.3841818478383569  0.4910691364644987  0.4368549797736134  1.0000
  H   H522      1.0  0.35866805726068945  0.4819215254781639  0.4594660464237865  1.0000
  H   H523      1.0  0.39658858748150716  0.5041094688006801  0.5169899386115094  1.0000
  H   H524      1.0  0.3690818467395047  0.5141498523372738  0.5247211447636517  1.0000
  C   C743      1.0  0.37722824350591566  0.9981383294399282  0.5087009700916775  1.0000
  C   C744      1.0  0.37940855340751634  0.0004338745582609931  0.4606838275932422  1.0000
  H   H525      1.0  0.36476671924601384  0.023139150748085775  0.5206835649575429  1.0000
  H   H526      1.0  0.3930288180691623  0.01083268033840992  0.5228650355511734  1.0000
  H   H527      1.0  0.36961705362766417  0.9712613082302453  0.44642990041895186  1.0000
  H   H528      1.0  0.3968396262782984  0.9939244824694108  0.45139088681156897  1.0000
  C   C745      1.0  0.37292034143704295  0.24009129378300587  0.6828436773238385  1.0000
  C   C746      1.0  0.39015162726445596  0.21846090150781852  0.7122129646625176  1.0000
  H   H529      1.0  0.35815775355337603  0.2159606785731799  0.6806436146512851  1.0000
  H   H530      1.0  0.3667622731481745  0.272171906653816  0.6965646315690032  1.0000
  H   H531      1.0  0.4040288645923039  0.24287486941082706  0.7166657675645731  1.0000
  H   H532      1.0  0.3982734617942479  0.1867770027166817  0.6989072335132996  1.0000
  C   C747      1.0  0.3760697081895177  0.21463564576221658  0.21496750399923875  1.0000
  C   C748      1.0  0.35704662734022785  0.22741330513920813  0.18591645107812485  1.0000
  H   H533      1.0  0.38716954630992345  0.18608271128763273  0.20243551320119912  1.0000
  H   H534      1.0  0.3877884287611612  0.2446439758988819  0.21788274197436316  1.0000
  H   H535      1.0  0.347798222583382  0.2563864736001733  0.198937103683857  1.0000
  H   H536      1.0  0.34489728635831235  0.19901170836892879  0.18575531972745896  1.0000
  C   C749      1.0  0.11557026965600571  0.46681907233248926  0.7429518684818568  1.0000
  C   C750      1.0  0.11468472257140166  0.5027192906182303  0.7074131096205664  1.0000
  H   H537      1.0  0.1033623723971579  0.4760502851795312  0.7669077621741259  1.0000
  H   H538      1.0  0.1316653881555267  0.4686151825644066  0.758674569891063  1.0000
  H   H539      1.0  0.10207299614086134  0.4939481386818379  0.6844797802690615  1.0000
  H   H540      1.0  0.13003495158235634  0.5022884492980212  0.6890844184823214  1.0000
  C   C751      1.0  0.11927266934927741  0.981957697614122  0.7042338641247355  1.0000
  C   C752      1.0  0.12280341050964305  0.982592606887016  0.7521611449083764  1.0000
  H   H541      1.0  0.13013721160164418  0.00978826166247096  0.6908971461773127  1.0000
  H   H542      1.0  0.10217279502313385  0.9936933053548779  0.6959789810829291  1.0000
  H   H543      1.0  0.13648929134586935  0.9596352723623348  0.7609118167214626  1.0000
  H   H544      1.0  0.1081261335147328  0.9684385876595426  0.7677568004449424  1.0000
  C   C753      1.0  0.2444407178772233  0.20636760825955458  0.8208774686077377  1.0000
  C   C754      1.0  0.2570598020548678  0.2125358266109191  0.8625237253952294  1.0000
  H   H545      1.0  0.25251014976097247  0.1773185822112731  0.8031964015519768  1.0000
  H   H546      1.0  0.2472827306611165  0.23589934624978412  0.7995771435216351  1.0000
  H   H547      1.0  0.25372575130725133  0.24659212919803217  0.8778838812654375  1.0000
  H   H548      1.0  0.2501017756991235  0.18691167862267571  0.885274232637325  1.0000
  C   C755      1.0  0.10959214891454956  0.46137853432854153  0.24543589307024838  1.0000
  C   C756      1.0  0.10887021124598872  0.49457994096687696  0.20743895150735706  1.0000
  H   H549      1.0  0.09668394452518164  0.4708392455223488  0.2672927410521123  1.0000
  H   H550      1.0  0.12543910342299947  0.465736338380137  0.2636384679397991  1.0000
  H   H551      1.0  0.09542990482277587  0.48386389513052624  0.18616217638789034  1.0000
  H   H552      1.0  0.1242132204115624  0.490739293190703  0.1884570586629511  1.0000
  C   C757      1.0  0.1223660730321783  0.9857229751587915  0.24732670749671617  1.0000
  C   C758      1.0  0.12559985740211413  0.9847715293378775  0.19968543486050724  1.0000
  H   H553      1.0  0.13207386411944244  0.9585301661660841  0.2618604454587975  1.0000
  H   H554      1.0  0.10496119484113713  0.9743154568731524  0.25366226825770616  1.0000
  H   H555      1.0  0.1394514448848064  0.00818178576159808  0.18962681029518905  1.0000
  H   H556      1.0  0.11046553574843189  0.9994294743890553  0.1844517051269755  1.0000
  C   C759      1.0  0.10779874628646509  0.2052005964885326  0.49185034922780996  1.0000
  C   C760      1.0  0.12529382704027459  0.22025141592164074  0.5234754754758114  1.0000
  H   H557      1.0  0.09469461128129689  0.23253992975583104  0.4924514931129866  1.0000
  H   H558      1.0  0.0992864873882927  0.17274073911499185  0.5026523470820656  1.0000
  H   H559      1.0  0.13394245490590895  0.2511250811649378  0.5125929119462229  1.0000
  H   H560      1.0  0.13793150611250893  0.19209969325566517  0.5264873922613355  1.0000
  C   C761      1.0  0.13306119712727046  0.22807180028130175  0.02039396123860688  1.0000
  C   C762      1.0  0.11526297034163382  0.213035626110637  0.9893031115710802  1.0000
  H   H561      1.0  0.141545500834835  0.26018645640651006  0.009530702484299982  1.0000
  H   H562      1.0  0.1461206591280039  0.19995630303417267  0.022625351564145614  1.0000
  H   H563      1.0  0.10729758299817604  0.18255457517533527  0.004839892191056405  1.0000
  H   H564      1.0  0.10283519507221925  0.24136614251363359  0.985860478290507  1.0000
  C   C763      1.0  0.24058297298201137  0.19902575763003183  0.33178184574035036  1.0000
  C   C764      1.0  0.2516561474755445  0.1996248869342778  0.37504871207396245  1.0000
  H   H565      1.0  0.24777036909389122  0.17045013970171657  0.31365147011061717  1.0000
  H   H566      1.0  0.24428670198694247  0.23188769178434487  0.31446642290340815  1.0000
  H   H567      1.0  0.2466369370321454  0.23383014447307424  0.38988519105450636  1.0000
  H   H568      1.0  0.24472812062511057  0.1701747344344043  0.3933030348965155  1.0000
  C   C765      1.0  0.8674698538262149  0.4709662316629238  0.7305881359980702  1.0000
  C   C766      1.0  0.8663697991689203  0.4734953085417842  0.6827383222099417  1.0000
  H   H569      1.0  0.856443314265274  0.4973442445467013  0.7442595113661068  1.0000
  H   H570      1.0  0.8845055544106681  0.4836881971225817  0.7400360107707682  1.0000
  H   H571      1.0  0.8537322986016066  0.4495494124933578  0.6704830435198724  1.0000
  H   H572      1.0  0.8824474088034648  0.4587249905207929  0.6706689643091024  1.0000
  C   C767      1.0  0.8839839641438776  0.9899611027460721  0.7294292297452039  1.0000
  C   C768      1.0  0.8823702432859101  0.9546538284720468  0.6932428468014294  1.0000
  H   H573      1.0  0.8988423857086719  0.9811847258218163  0.7481855386986777  1.0000
  H   H574      1.0  0.8696224515075982  0.9885301092689704  0.7511664686859966  1.0000
  H   H575      1.0  0.8957689965270814  0.9610872250083649  0.6710284111682802  1.0000
  H   H576      1.0  0.8670418707094937  0.9572811741488225  0.6756981216577704  1.0000
  C   C769      1.0  0.9885895068200009  0.2375199071897754  0.6463505250778349  1.0000
  C   C770      1.0  0.0013219228165707846  0.2275568845761164  0.6872469013487661  1.0000
  H   H577      1.0  0.9963034769500617  0.21896959497514001  0.6201449898358843  1.0000
  H   H578      1.0  0.989990369023456  0.2758102847400541  0.6401903495946851  1.0000
  H   H579      1.0  0.9989565996884813  0.18878910990525555  0.6956133368641104  1.0000
  H   H580      1.0  0.9935937177885971  0.24714898498805488  0.7139420280023554  1.0000
  C   C771      1.0  0.8580199448206428  0.4855032191549701  0.24379421250134858  1.0000
  C   C772      1.0  0.8621225319309878  0.48834826950156723  0.19685757965632086  1.0000
  H   H581      1.0  0.8429429357108137  0.5038112397752994  0.2536731136370779  1.0000
  H   H582      1.0  0.8719059442962103  0.5050390983002645  0.2591989893609718  1.0000
  H   H583      1.0  0.852452960721305  0.4604605097054066  0.17902746610119394  1.0000
  H   H584      1.0  0.8792416644442665  0.47959820996276076  0.18890078961324638  1.0000
  C   C773      1.0  0.8745832667516523  0.0045392591630165164  0.23387223971611434  1.0000
  C   C774      1.0  0.8694401539031553  0.9690398100825326  0.19861236203866883  1.0000
  H   H585      1.0  0.8884862977289308  0.9917177376383823  0.2540623078225325  1.0000
  H   H586      1.0  0.8604348365799853  0.006425298353122863  0.2561827344236992  1.0000
  H   H587      1.0  0.8803216462247406  0.9770677128525106  0.17224879412587274  1.0000
  H   H588      1.0  0.8522357956665076  0.9709987867811255  0.1894250862388746  1.0000
  C   C775      1.0  0.0020237058708639606  0.22590595338127173  0.17890289917240995  1.0000
  C   C776      1.0  0.9888281572130191  0.23490250916941544  0.1388270533179466  1.0000
  H   H589      1.0  0.9990946801440692  0.1886464441481736  0.1878447595304207  1.0000
  H   H590      1.0  0.9956695923394636  0.2492827124467586  0.20455934835016837  1.0000
  H   H591      1.0  0.995226983647499  0.21474705924655474  0.11245883738541976  1.0000
  H   H592      1.0  0.9906410013334903  0.27309360165039903  0.12848489954905282  1.0000
  C   C777      1.0  0.8780471226028264  0.25043144602144024  0.47218612708693036  1.0000
  C   C778      1.0  0.8626988498186483  0.221800162587087  0.4999812850767965  1.0000
  H   H593      1.0  0.8933900409658482  0.2302198594628841  0.46953675584040466  1.0000
  H   H594      1.0  0.8836619158028565  0.28301547292916435  0.4874409278432415  1.0000
  H   H595      1.0  0.8574194140813919  0.1871521468558808  0.48695443511142333  1.0000
  H   H596      1.0  0.8469566235546354  0.24029910504643912  0.5045642325313129  1.0000
  C   C779      1.0  0.8787197959869673  0.2442497023636452  0.9669709261047519  1.0000
  C   C780      1.0  0.8595848046056107  0.23706315420902946  0.9984132302433439  1.0000
  H   H597      1.0  0.8905957680195249  0.2716348256158591  0.9771191025168825  1.0000
  H   H598      1.0  0.8891653705905664  0.21218574433054896  0.9679439115683882  1.0000
  H   H599      1.0  0.8479633348509986  0.20940524136725752  0.9874748904769864  1.0000
  H   H600      1.0  0.8493413914123433  0.26951309861256356  0.9989895846899565  1.0000
  C   C781      1.0  0.6215565039697316  0.47886520631271273  0.9413665347479777  1.0000
  C   C782      1.0  0.6224754876267761  0.484190255102948  0.9885377376554172  1.0000
  H   H601      1.0  0.6338696522569833  0.5031888660702535  0.9277602316561715  1.0000
  H   H602      1.0  0.6053212401913974  0.4921411993517046  0.9314073778048976  1.0000
  H   H603      1.0  0.6349818834292186  0.45976875417904395  0.0008766807006397315  1.0000
  H   H604      1.0  0.606577451220984  0.4705937054910767  0.999857215039696  1.0000
  C   C783      1.0  0.6157662823260854  0.9620576988297301  0.9776303846872646  1.0000
  C   C784      1.0  0.6118779942545188  0.9985605340562332  0.9428167169039708  1.0000
  H   H605      1.0  0.6046874163199973  0.9704126591184337  0.0034454862718327206  1.0000
  H   H606      1.0  0.6324639873043342  0.9639118421660644  0.9895541046365405  1.0000
  H   H607      1.0  0.5970458022198362  0.9871625491408319  0.9250302947343129  1.0000
  H   H608      1.0  0.6258481214536783  0.9974482335773407  0.9200909991004392  1.0000
  C   C785      1.0  0.4875530508568543  0.23453931924035684  0.052041397981315955  1.0000
  C   C786      1.0  0.4996768580601723  0.23972981189738085  0.009922995349575015  1.0000
  H   H609      1.0  0.49401157824688463  0.2602354310871769  0.07443834585589268  1.0000
  H   H610      1.0  0.4914383808256953  0.19974060188220577  0.06721687253422234  1.0000
  H   H611      1.0  0.49654495191252607  0.27581970845180553  0.9974712315779125  1.0000
  H   H612      1.0  0.49317710301694373  0.2139061597148237  0.9868954373505533  1.0000
  C   C787      1.0  0.739259398816552  0.26016125931229367  0.8598216765917552  1.0000
  C   C788      1.0  0.7495580132365689  0.2609693258009607  0.8160001465702741  1.0000
  H   H613      1.0  0.7457580077525195  0.2882224433989129  0.8796718195218647  1.0000
  H   H614      1.0  0.7445725464119116  0.22881903498548575  0.8772982307793634  1.0000
  H   H615      1.0  0.7445643589180833  0.22837815188203378  0.8002433596830422  1.0000
  H   H616      1.0  0.7432151531970231  0.28849121545770834  0.796177891758549  1.0000
  C   C789      1.0  0.626822148276077  0.48395422118538006  0.4355349421700813  1.0000
  C   C790      1.0  0.626333726533603  0.48468684358570974  0.48500226682450964  1.0000
  H   H617      1.0  0.6391913785838605  0.5088855467685526  0.4230565585329362  1.0000
  H   H618      1.0  0.6107357726269135  0.497673749188285  0.4243580040575454  1.0000
  H   H619      1.0  0.6379787460463163  0.45861223991341454  0.4990021022535191  1.0000
  H   H620      1.0  0.6095644943222389  0.47424436484854826  0.4950543841622048  1.0000
  C   C791      1.0  0.624667420143416  0.0014091644894025914  0.45087340728154585  1.0000
  C   C792      1.0  0.6267679869555144  0.9676065628448881  0.48824658459657094  1.0000
  H   H621      1.0  0.6116854189580536  0.9886638842331273  0.42950491123939244  1.0000
  H   H622      1.0  0.6394445918888471  0.003946914388584451  0.4318413158240478  1.0000
  H   H623      1.0  0.6149278269036  0.9780642724547685  0.5131413782744509  1.0000
  H   H624      1.0  0.6432699417082566  0.968862156844326  0.5020883873547349  1.0000
  C   C793      1.0  0.5066907873966608  0.22497388088258735  0.5392291636832228  1.0000
  C   C794      1.0  0.49371141621218584  0.2295379027179838  0.49859617519703386  1.0000
  H   H625      1.0  0.49971343790120687  0.19652833381112983  0.5585463336842067  1.0000
  H   H626      1.0  0.5043572202415769  0.2575650307807289  0.558031952834004  1.0000
  H   H627      1.0  0.4946210020164455  0.19701161736812203  0.4809120094614524  1.0000
  H   H628      1.0  0.5013259209627493  0.25577429351256636  0.4777079745270576  1.0000
  C   C795      1.0  0.6158501794683001  0.24889184238042927  0.7045654228655288  1.0000
  C   C796      1.0  0.6342334464846742  0.2366477260744898  0.6747282348739546  1.0000
  H   H629      1.0  0.6034824731441257  0.22009559176624563  0.7055910858861136  1.0000
  H   H630      1.0  0.6072861041681815  0.2801436629736742  0.692443387407741  1.0000
  H   H631      1.0  0.6424916830918679  0.20510680163219047  0.6863637775999243  1.0000
  H   H632      1.0  0.6469260375496227  0.2649796528826955  0.673522848423781  1.0000
  C   C797      1.0  0.6084714042026566  0.2600062876275022  0.20156509403962128  1.0000
  C   C798      1.0  0.624473871288263  0.23083236422570438  0.17510019929669493  1.0000
  H   H633      1.0  0.5919794229275824  0.24306960101320704  0.20536314589560553  1.0000
  H   H634      1.0  0.6046400155748931  0.2932912361104369  0.18555545487903685  1.0000
  H   H635      1.0  0.6280127030371386  0.19676417683467232  0.19104073789728224  1.0000
  H   H636      1.0  0.6402174385675888  0.2509207846142763  0.17276596378791387  1.0000
  C   C799      1.0  0.7399295691595023  0.24731608289832688  0.35433093879411354  1.0000
  C   C800      1.0  0.7517643566190462  0.2446054167764297  0.31198128168736877  1.0000
  H   H637      1.0  0.7427904723774047  0.21376798326518734  0.3692386874105289  1.0000
  H   H638      1.0  0.7482465346602107  0.2725613440379343  0.37555689556452404  1.0000
  H   H639      1.0  0.7451566759417624  0.2715695953495746  0.2917084788297434  1.0000
  H   H640      1.0  0.7480143328590616  0.2112354000421247  0.29652630621465353  1.0000
