data_image0
_chemical_formula_sum              "C1800 H1440"
_cell_length_a       71.06548255413615
_cell_length_b       70.8339759093778
_cell_length_c       31.798913833866408
_cell_angle_alpha    90.41440000060538
_cell_angle_beta     89.71910000001716
_cell_angle_gamma    120.34160000006459

_space_group_name_H-M_alt    "P 1"
_space_group_IT_number       1

loop_
  _space_group_symop_operation_xyz
  'x, y, z'

loop_
  _atom_site_type_symbol
  _atom_site_label
  _atom_site_symmetry_multiplicity
  _atom_site_fract_x
  _atom_site_fract_y
  _atom_site_fract_z
  _atom_site_occupancy
  C   C1        1.0  0.15379756534266764  0.6718974943975874  0.25786047589821653  1.0000
  C   C2        1.0  0.17616228469203754  0.6847643815334874  0.2542976786756544  1.0000
  C   C3        1.0  0.18537070131871738  0.7054990705258779  0.23973672235101437  1.0000
  C   C4        1.0  0.1726502563287281  0.7149225934583774  0.2293319958872076  1.0000
  C   C5        1.0  0.1506666011396408  0.7023189881556148  0.2357188657603662  1.0000
  C   C6        1.0  0.14134713237050858  0.6809827394105532  0.24814321299946587  1.0000
  H   H1        1.0  0.18696782939484533  0.6783433018738865  0.2609628675127081  1.0000
  H   H2        1.0  0.20307867563665163  0.7154853952497436  0.23849136291934822  1.0000
  H   H3        1.0  0.14015559137024428  0.7085090715692182  0.22779133531757817  1.0000
  H   H4        1.0  0.12417903958383651  0.6714556360992862  0.24980526466521225  1.0000
  C   C7        1.0  0.15156529213715927  0.7362026062006954  0.16875720995543786  1.0000
  C   C8        1.0  0.1675401695258281  0.7480177100742746  0.198307136288177  1.0000
  C   C9        1.0  0.1709890012218569  0.7683861950261665  0.21007200910096258  1.0000
  C   C10       1.0  0.15888133403226362  0.7767857434990664  0.1939757384466775  1.0000
  C   C11       1.0  0.14235198123434784  0.7643050431467161  0.16562934507984403  1.0000
  C   C12       1.0  0.13890719496358006  0.7439126900513345  0.15295655492382104  1.0000
  C   C13       1.0  0.18374001998483652  0.7399000855522945  0.2123177443791262  1.0000
  C   C14       1.0  0.19738019301310514  0.7429832685249148  0.171119304574439  1.0000
  C   C15       1.0  0.21150811470115372  0.7639504923194381  0.15664546051307457  1.0000
  C   C16       1.0  0.22364349954022178  0.7676075142923601  0.12103824427798145  1.0000
  C   C17       1.0  0.2220393242635298  0.7504656212632415  0.09813023491412849  1.0000
  C   C18       1.0  0.20772952762357633  0.7291902076193465  0.11066276489173656  1.0000
  C   C19       1.0  0.19444309091433123  0.725713422903022  0.1446620208303375  1.0000
  C   C20       1.0  0.1865520708107012  0.7513190992371658  0.2902948559449056  1.0000
  C   C21       1.0  0.19710473349134738  0.7626622967457753  0.3252746751935912  1.0000
  C   C22       1.0  0.21993282745265247  0.7777824348308322  0.3242525999024511  1.0000
  C   C23       1.0  0.23075656945191822  0.779643900934591  0.28713019635883075  1.0000
  C   C24       1.0  0.22009926813742936  0.7668746367756977  0.25284664624694037  1.0000
  C   C25       1.0  0.1975683748342618  0.7532083475785467  0.2525925426053277  1.0000
  C   C26       1.0  0.23230083237781118  0.7930301898386122  0.3637550236932556  1.0000
  C   C27       1.0  0.20817881648590644  0.8382864836145748  0.3528990116778223  1.0000
  C   C28       1.0  0.1965240264049181  0.8187341239680448  0.3736109743468963  1.0000
  C   C29       1.0  0.20452408711966943  0.8050003081560007  0.37776217245245014  1.0000
  C   C30       1.0  0.22434687731896572  0.8100829257908269  0.36012587019794556  1.0000
  C   C31       1.0  0.23503692237588825  0.8286248701339846  0.3355992080576316  1.0000
  C   C32       1.0  0.2271106950769672  0.842942311281832  0.33360537502814586  1.0000
  C   C33       1.0  0.25750169920501925  0.8021724034713985  0.3670634027895  1.0000
  C   C34       1.0  0.2651801999839916  0.7880789177635747  0.3598742824339726  1.0000
  C   C35       1.0  0.2868071473274173  0.7958679007808  0.35561930437577993  1.0000
  C   C36       1.0  0.3019096487007334  0.8178347038267532  0.36172345249917387  1.0000
  C   C37       1.0  0.29437358411523995  0.8317382313540312  0.3734065592886682  1.0000
  C   C38       1.0  0.2727069956662785  0.8242053584043307  0.3774130944299376  1.0000
  C   C39       1.0  0.2288667163231398  0.7927076359058203  0.4452537349852465  1.0000
  C   C40       1.0  0.22225605050119543  0.7825191542017724  0.48325921158041185  1.0000
  C   C41       1.0  0.21315751611588063  0.7601057894713333  0.4851492646572587  1.0000
  C   C42       1.0  0.21130267031143607  0.7483714250121746  0.450096799441726  1.0000
  C   C43       1.0  0.2183053820508634  0.7586362579287822  0.4119057768706305  1.0000
  C   C44       1.0  0.22526705144951503  0.7806204306130319  0.40809107739939054  1.0000
  H   H5        1.0  0.14887358178941523  0.7207932584732747  0.1579103179964486  1.0000
  H   H6        1.0  0.18465850450571947  0.7792403357725711  0.22966189034271717  1.0000
  H   H7        1.0  0.1619165068524227  0.7929610660442193  0.2009730231321755  1.0000
  H   H8        1.0  0.126571138109145  0.7348239381227286  0.12892331928559903  1.0000
  H   H9        1.0  0.21421115783207545  0.778457787032776  0.17465914441353855  1.0000
  H   H10       1.0  0.23447758697407486  0.7840481891192587  0.1104677843746575  1.0000
  H   H11       1.0  0.20523789844275844  0.7151594061389114  0.09281387097667484  1.0000
  H   H12       1.0  0.18214364264356842  0.7086394806994136  0.1505944603048199  1.0000
  H   H13       1.0  0.168849024875058  0.7409923662615718  0.29262581657811515  1.0000
  H   H14       1.0  0.18702460019197226  0.7605589790573808  0.3527826523369848  1.0000
  H   H15       1.0  0.2477529798496096  0.7897069258551691  0.2846797315377341  1.0000
  H   H16       1.0  0.23005209379797392  0.7676710283230254  0.2265101246295459  1.0000
  H   H17       1.0  0.1817333137776697  0.8150540073439422  0.3891779672427232  1.0000
  H   H18       1.0  0.19537835359385353  0.7902106108048093  0.3953355777659614  1.0000
  H   H19       1.0  0.25027334203158424  0.8329140901181546  0.3208058475360215  1.0000
  H   H20       1.0  0.2363417272388824  0.8582268347422244  0.3163150059491041  1.0000
  H   H21       1.0  0.25463540806994456  0.7708757849579553  0.3549777555776488  1.0000
  H   H22       1.0  0.2914524135803578  0.7836576288029418  0.34742697781141035  1.0000
  H   H23       1.0  0.3051499605026122  0.8490210050230191  0.37812382986316123  1.0000
  H   H24       1.0  0.268748395323009  0.8362878888155488  0.3861243207575014  1.0000
  H   H25       1.0  0.23552901871601895  0.8101608953932635  0.4449612642096279  1.0000
  H   H26       1.0  0.2235390610581266  0.7922647732195398  0.5104621385599882  1.0000
  H   H27       1.0  0.2054802650034341  0.7309990471315664  0.4523547996233833  1.0000
  H   H28       1.0  0.2165378292200219  0.7481392527830412  0.3856525937000521  1.0000
  C   C45       1.0  0.1711350577088484  0.6901598367848962  0.797750206240712  1.0000
  C   C46       1.0  0.1918312176025946  0.7008419467937195  0.7807240043138419  1.0000
  C   C47       1.0  0.19871733449120987  0.720018849421857  0.75971328117505  1.0000
  C   C48       1.0  0.18571639863138953  0.7291842612355858  0.7557067460337806  1.0000
  C   C49       1.0  0.1652629183198541  0.7186002424509587  0.7744248756733689  1.0000
  C   C50       1.0  0.15802298784286375  0.699487978929328  0.7951588522717906  1.0000
  H   H29       1.0  0.20321373360658  0.6948344942343034  0.7816014166406976  1.0000
  H   H30       1.0  0.21490199606395827  0.727994628903649  0.7470080990944155  1.0000
  H   H31       1.0  0.15500878845943417  0.725192048965208  0.7736764020755494  1.0000
  H   H32       1.0  0.14225977445459584  0.6918908665718921  0.8104239398508499  1.0000
  C   C51       1.0  0.1585802989137401  0.7447344678374981  0.7015619143797498  1.0000
  C   C52       1.0  0.17729162551313082  0.7591320074740397  0.722374512154413  1.0000
  C   C53       1.0  0.18029956349459933  0.7796058400019336  0.7309442203647419  1.0000
  C   C54       1.0  0.16528966232689193  0.7853908594628443  0.7186667374828615  1.0000
  C   C55       1.0  0.14635632524222564  0.7700299085849117  0.6978824433316452  1.0000
  C   C56       1.0  0.14305206609907234  0.7494490328814846  0.6907750889994091  1.0000
  C   C57       1.0  0.19536754007029955  0.7528333378213087  0.7329380533942277  1.0000
  C   C58       1.0  0.20477597954334673  0.7528166766856006  0.6860389493426181  1.0000
  C   C59       1.0  0.21617395594003425  0.7719400745637388  0.6640533236184311  1.0000
  C   C60       1.0  0.22242516642154928  0.7718876237890523  0.6235005209130394  1.0000
  C   C61       1.0  0.21673721143785574  0.7525431727777113  0.6031816641251733  1.0000
  C   C62       1.0  0.20444296307189372  0.7331703785627398  0.6243339053811998  1.0000
  C   C63       1.0  0.19895843969153854  0.7335116334747098  0.6652011927915578  1.0000
  C   C64       1.0  0.20465051520480895  0.7703773577652252  0.8071061262134566  1.0000
  C   C65       1.0  0.21862573253096848  0.7825730183970109  0.8387338529919074  1.0000
  C   C66       1.0  0.24073030589274763  0.794048359404778  0.8319315488234884  1.0000
  C   C67       1.0  0.24760118945849807  0.7940459836006772  0.7917278241406093  1.0000
  C   C68       1.0  0.23414183986973805  0.7807238174846398  0.7602982227262871  1.0000
  C   C69       1.0  0.21212809148662895  0.7687413932563616  0.7671068165888053  1.0000
  C   C70       1.0  0.2561542758103138  0.8069211192319519  0.8697923624543693  1.0000
  C   C71       1.0  0.24124787377176557  0.8601345602165894  0.8808181962104843  1.0000
  C   C72       1.0  0.22951316702952462  0.8406607153632368  0.902099376195547  1.0000
  C   C73       1.0  0.2345462257953195  0.824571858770031  0.8984450639238398  1.0000
  C   C74       1.0  0.2512113922617639  0.8266660794736663  0.8728994713394354  1.0000
  C   C75       1.0  0.26237279376443506  0.8459661842592496  0.8492156282084308  1.0000
  C   C76       1.0  0.25722577697347326  0.8624064204744543  0.8533290881493887  1.0000
  C   C77       1.0  0.28060152032292135  0.813372507613681  0.8628579747098646  1.0000
  C   C78       1.0  0.28559930103086456  0.7981676290147037  0.8468727171564325  1.0000
  C   C79       1.0  0.3067523445731233  0.8036002312066571  0.8389099644266884  1.0000
  C   C80       1.0  0.32380724340424377  0.8240760519216005  0.8487439011509814  1.0000
  C   C81       1.0  0.31949565712308825  0.839224737598685  0.8668110474512897  1.0000
  C   C82       1.0  0.29798899651638416  0.8332748767265407  0.8746542959931468  1.0000
  C   C83       1.0  0.25371948818675216  0.8028494581562953  0.9502092463612766  1.0000
  C   C84       1.0  0.24368458179812078  0.7907510415704084  0.9850321377421839  1.0000
  C   C85       1.0  0.2342539313046239  0.7682953007469463  0.9829816974658043  1.0000
  C   C86       1.0  0.2350779692248556  0.7585842027852188  0.9461366694319643  1.0000
  C   C87       1.0  0.24334722619222224  0.771020262640325  0.9104049172537045  1.0000
  C   C88       1.0  0.25115736797833155  0.7931302967466645  0.9111219423810275  1.0000
  H   H33       1.0  0.1556186985792748  0.7285761869416288  0.6925204791119716  1.0000
  H   H34       1.0  0.19491850411116196  0.7926229901135685  0.745561469451571  1.0000
  H   H35       1.0  0.16962176405037718  0.8022098300169422  0.7247928995356031  1.0000
  H   H36       1.0  0.12873174188413058  0.73755699836711  0.6731922491447488  1.0000
  H   H37       1.0  0.22029967016537205  0.7874579322710767  0.6779441130367881  1.0000
  H   H38       1.0  0.2309886023242147  0.7874834035769848  0.6086505531445354  1.0000
  H   H39       1.0  0.19961592242891976  0.717862453712841  0.6094933721538449  1.0000
  H   H40       1.0  0.1881491102717045  0.7181556589442535  0.6786800072464091  1.0000
  H   H41       1.0  0.18777710966970043  0.7612479050114485  0.8150971825666478  1.0000
  H   H42       1.0  0.21128014666460748  0.7820917640999561  0.868864632574719  1.0000
  H   H43       1.0  0.2648830471520919  0.8035862862188464  0.7838279683518583  1.0000
  H   H44       1.0  0.24248175203082536  0.7806670261506328  0.7313561953282477  1.0000
  H   H45       1.0  0.21624799994979216  0.8374654107259561  0.9230157539228492  1.0000
  H   H46       1.0  0.22368037652337464  0.809711329062815  0.9141347058546035  1.0000
  H   H47       1.0  0.27462178958105127  0.8481306562539759  0.8259217461115843  1.0000
  H   H48       1.0  0.2659689057235554  0.8773536055834533  0.8347713457093332  1.0000
  H   H49       1.0  0.2727771888991286  0.7816816286862703  0.8399194603296298  1.0000
  H   H50       1.0  0.3100680902838249  0.7910404203762852  0.8269060832381285  1.0000
  H   H51       1.0  0.3316796875433061  0.8554745870273228  0.8746983238518421  1.0000
  H   H52       1.0  0.29559332018810214  0.8459161862883585  0.8882683388711337  1.0000
  H   H53       1.0  0.2619262945063652  0.8201419336043455  0.9543164166081352  1.0000
  H   H54       1.0  0.2436004439617508  0.7985901418059227  0.015028626529395303  1.0000
  H   H55       1.0  0.22762449971530246  0.7407784352214435  0.9432937276990698  1.0000
  H   H56       1.0  0.2423185188717234  0.7623832355310335  0.8818905890544191  1.0000
  C   C89       1.0  0.04744448609109183  0.8355475273549857  0.022279385887096027  1.0000
  C   C90       1.0  0.059437457582262765  0.8540673518774959  0.04596005272258046  1.0000
  C   C91       1.0  0.07845229659569868  0.8583728886099432  0.06367937893919608  1.0000
  C   C92       1.0  0.08668230375282696  0.844481233410971  0.05956183069707361  1.0000
  C   C93       1.0  0.07438217095266522  0.8257737390313801  0.03660822105100054  1.0000
  C   C94       1.0  0.05441916932887147  0.820623575026703  0.019268006146221678  1.0000
  H   H57       1.0  0.054300161674004026  0.865754033309445  0.049541404542735555  1.0000
  H   H58       1.0  0.08841175490571311  0.8739835379610356  0.07912529522361104  1.0000
  H   H59       1.0  0.07991689291263511  0.8145715345445843  0.029128957106671374  1.0000
  H   H60       1.0  0.04556740593045024  0.805098135889478  0.002732441242110482  1.0000
  C   C95       1.0  0.1020963806697956  0.8119338219121014  0.09276764172504483  1.0000
  C   C96       1.0  0.11678654976452157  0.8328961989657079  0.08002692287274914  1.0000
  C   C97       1.0  0.1386343501987399  0.8382656649152158  0.07685974740903452  1.0000
  C   C98       1.0  0.14492682161938225  0.8232155094469025  0.08517566646245577  1.0000
  C   C99       1.0  0.12965620671203545  0.8022109097377019  0.09688267408952757  1.0000
  C   C100      1.0  0.10807145028926038  0.796534045739311  0.10009670777428213  1.0000
  C   C101      1.0  0.11050777197167062  0.8514929557140516  0.07576282475811241  1.0000
  C   C102      1.0  0.1139819792436078  0.8593717407302714  0.12337863945233991  1.0000
  C   C103      1.0  0.13397977727086155  0.8737608502252523  0.13953843601702814  1.0000
  C   C104      1.0  0.13639902263575973  0.8794527050015939  0.18149950123125838  1.0000
  C   C105      1.0  0.11904767633781459  0.8689363319530877  0.20897886026650006  1.0000
  C   C106      1.0  0.09908464922527989  0.8538189085630316  0.19325776986523968  1.0000
  C   C107      1.0  0.09674907433079881  0.8489969461709235  0.1511715397384329  1.0000
  C   C108      1.0  0.1247226254881813  0.8597409894948095  0.9997437322405028  1.0000
  C   C109      1.0  0.1377221066846647  0.8734451531263938  0.969270164329278  1.0000
  C   C110      1.0  0.14973896604728948  0.8960385076477783  0.9753868918408706  1.0000
  C   C111      1.0  0.148164593080527  0.9039041224368521  0.014062309376445658  1.0000
  C   C112      1.0  0.13422599260522158  0.8903116321868607  0.04411811580559342  1.0000
  C   C113      1.0  0.12370010749054125  0.8679451328549324  0.03838977690463407  1.0000
  C   C114      1.0  0.1654350767690366  0.9117638750862479  0.938406635383895  1.0000
  C   C115      1.0  0.21437256742702968  0.8905227645806566  0.9338025793031899  1.0000
  C   C116      1.0  0.1948558824726688  0.8793878006347253  0.9115464967327318  1.0000
  C   C117      1.0  0.1803265005340214  0.8868454204660534  0.912103134660522  1.0000
  C   C118      1.0  0.18363682428657624  0.9045115962030775  0.9370103232938451  1.0000
  C   C119      1.0  0.20165762301958182  0.9136889481285702  0.9628483866538682  1.0000
  C   C120      1.0  0.21655474860440538  0.9065570209624056  0.9617791386569831  1.0000
  C   C121      1.0  0.17484147534670963  0.937485822886814  0.9442749199785643  1.0000
  C   C122      1.0  0.16125077219602113  0.9450992099427399  0.9580839433736302  1.0000
  C   C123      1.0  0.16889905669390923  0.9667458915436198  0.9666442170428102  1.0000
  C   C124      1.0  0.1906787384400177  0.981956797559593  0.9601941357439534  1.0000
  C   C125      1.0  0.20430527396027987  0.9749312910178835  0.9437497305212708  1.0000
  C   C126      1.0  0.1965107007743459  0.9531275183156425  0.9363121672488202  1.0000
  C   C127      1.0  0.16620044828161484  0.915252605769597  0.857216119102771  1.0000
  C   C128      1.0  0.15608994774338375  0.9110931904766842  0.8185690937094745  1.0000
  C   C129      1.0  0.1336562430143604  0.8994084134998136  0.8150814583313993  1.0000
  C   C130      1.0  0.12133206743929131  0.8929321750713661  0.8515805531897767  1.0000
  C   C131      1.0  0.13148312596655914  0.898078087360947  0.8896929545846306  1.0000
  C   C132      1.0  0.15382715483919332  0.9077460181888455  0.8932183281273016  1.0000
  H   H61       1.0  0.08558736700788669  0.8075407069284823  0.09870857228656132  1.0000
  H   H62       1.0  0.151242020028742  0.854548469644953  0.06828154811167146  1.0000
  H   H63       1.0  0.1619842677937954  0.8287601616707813  0.08263305762280404  1.0000
  H   H64       1.0  0.09548183850883095  0.7804311502001345  0.11094705906502599  1.0000
  H   H65       1.0  0.14857762635183966  0.8821091456911775  0.12039952584219508  1.0000
  H   H66       1.0  0.1521463314297268  0.8916520285140827  0.19386158049877478  1.0000
  H   H67       1.0  0.0848609459784292  0.8457915347466748  0.2136436118952637  1.0000
  H   H68       1.0  0.08090954853514747  0.8374196024547639  0.13950981790887623  1.0000
  H   H69       1.0  0.11551142123597544  0.8422563473475314  0.9930829461893187  1.0000
  H   H70       1.0  0.13719408843226916  0.8660066194930016  0.9388500588178974  1.0000
  H   H71       1.0  0.15734126452350572  0.9209102806067435  0.021575789256675148  1.0000
  H   H72       1.0  0.13335286713817815  0.8977439296964798  0.0729334058675315  1.0000
  H   H73       1.0  0.19073369151309522  0.8651066706748075  0.8925390411645746  1.0000
  H   H74       1.0  0.166186420607773  0.8780568061244222  0.8934793504324237  1.0000
  H   H75       1.0  0.2055301694872737  0.9272190615722034  0.9829345247600595  1.0000
  H   H76       1.0  0.23129946090101028  0.9152162120576012  0.9797645189340001  1.0000
  H   H77       1.0  0.14431307020921952  0.9339323659025112  0.965222746176363  1.0000
  H   H78       1.0  0.157789413104577  0.9710179086532611  0.9812300176591425  1.0000
  H   H79       1.0  0.22070050221764265  0.9864451908342639  0.9338497520089348  1.0000
  H   H80       1.0  0.20767701322673035  0.949098330571525  0.920839519764483  1.0000
  H   H81       1.0  0.18416870992800996  0.92520492673974  0.8578042055010577  1.0000
  H   H82       1.0  0.16600684033999752  0.9169596787184899  0.790771790637512  1.0000
  H   H83       1.0  0.10381442657119784  0.8825594721518055  0.849287959690573  1.0000
  H   H84       1.0  0.12204454726121282  0.8933448740130283  0.9185123329477332  1.0000
  C   C133      1.0  0.025562283382303826  0.8028284144006931  0.5502601779734609  1.0000
  C   C134      1.0  0.03517198452114666  0.8226739733305172  0.5707708704313565  1.0000
  C   C135      1.0  0.0566876827836944  0.8323118529128907  0.5832150302068692  1.0000
  C   C136      1.0  0.06914179116387523  0.8224306832728661  0.5766328653319265  1.0000
  C   C137      1.0  0.058783489639897005  0.8024036846029956  0.5561693455797758  1.0000
  C   C138      1.0  0.03756561920888208  0.7927509155528941  0.5430962163943309  1.0000
  H   H85       1.0  0.025829285783638772  0.8303923261569802  0.5766863277317708  1.0000
  H   H86       1.0  0.06363756737484452  0.8479302268577006  0.5996437111943035  1.0000
  H   H87       1.0  0.06737426136999194  0.7935376902802337  0.5487852447071694  1.0000
  H   H88       1.0  0.030428955517218918  0.7776921379374784  0.5272902151227297  1.0000
  C   C139      1.0  0.08938734801020251  0.7972204882599694  0.6174687042717877  1.0000
  C   C140      1.0  0.10274865419130305  0.8173484031636223  0.6000934243224052  1.0000
  C   C141      1.0  0.12447861473646567  0.8234409868087555  0.5946748528558375  1.0000
  C   C142      1.0  0.13269552140124763  0.8103472284105928  0.6058327701880383  1.0000
  C   C143      1.0  0.11863939643468807  0.7903719888873015  0.6228275236444119  1.0000
  C   C144      1.0  0.09699631960798277  0.7834479267101501  0.6280762733702976  1.0000
  C   C145      1.0  0.09364945162606544  0.833239546634657  0.5895581867060374  1.0000
  C   C146      1.0  0.09808791997449672  0.8450950485616922  0.6337715913772356  1.0000
  C   C147      1.0  0.11916511684479164  0.8617386603361283  0.6426369152102328  1.0000
  C   C148      1.0  0.12514114853829966  0.8704249639252323  0.6832054421508726  1.0000
  C   C149      1.0  0.1100694905954405  0.8625151212887225  0.7149180797996644  1.0000
  C   C150      1.0  0.08922939425926671  0.8457041749439944  0.7064552963890239  1.0000
  C   C151      1.0  0.08342162248955026  0.8378170893279873  0.6667861957045874  1.0000
  C   C152      1.0  0.111440420279936  0.841904451126524  0.5159498966616484  1.0000
  C   C153      1.0  0.12241653258856268  0.8557602657530652  0.48302649289873684  1.0000
  C   C154      1.0  0.12730302000400562  0.8775064877325282  0.48408316150742325  1.0000
  C   C155      1.0  0.11809901086416519  0.8834948515733341  0.5159215930382015  1.0000
  C   C156      1.0  0.10714208166404923  0.8695571964431301  0.5482569104028262  1.0000
  C   C157      1.0  0.10436465820397474  0.8487214381540915  0.5503859718554475  1.0000
  C   C158      1.0  0.14323826325769382  0.894297344751563  0.4473041752616261  1.0000
  C   C159      1.0  0.19354017837186865  0.8786040535124795  0.4064526120865166  1.0000
  C   C160      1.0  0.1853577157346439  0.886894001550321  0.3783722727800845  1.0000
  C   C161      1.0  0.1702119855151351  0.8925571583517693  0.3897786330292086  1.0000
  C   C162      1.0  0.1623772124973279  0.889314272151549  0.4317591962951468  1.0000
  C   C163      1.0  0.17195884285263616  0.8821673729060107  0.46027666934148187  1.0000
  C   C164      1.0  0.18722382273146235  0.8767331205987171  0.44769099144873453  1.0000
  C   C165      1.0  0.15413876894596196  0.9189689085242903  0.4662298648064921  1.0000
  C   C166      1.0  0.14338844796781403  0.931228799163773  0.4666229706876998  1.0000
  C   C167      1.0  0.1529122051537542  0.9519747177855135  0.4828000639111612  1.0000
  C   C168      1.0  0.17275419285936436  0.9612592253122044  0.5003671795305732  1.0000
  C   C169      1.0  0.18385752049144696  0.9501927477077404  0.5020024999963975  1.0000
  C   C170      1.0  0.17494985287324072  0.9296315888370007  0.48408316150742325  1.0000
  C   C171      1.0  0.1381759773043518  0.9101549685297281  0.3765702754206282  1.0000
  C   C172      1.0  0.1306234417237566  0.9072101392748041  0.3364954894667852  1.0000
  C   C173      1.0  0.11403904787445715  0.8869390498088986  0.32389723218583927  1.0000
  C   C174      1.0  0.1034443389544541  0.8707922056422124  0.3530845576537523  1.0000
  C   C175      1.0  0.11130191655570582  0.8735172822719705  0.39353672525355476  1.0000
  C   C176      1.0  0.13006518744765908  0.8927011339254692  0.4051946732666518  1.0000
  H   H89       1.0  0.07277594004129784  0.7919291746741315  0.6262145239168978  1.0000
  H   H90       1.0  0.13604133783057104  0.8393282710996414  0.5816520412231871  1.0000
  H   H91       1.0  0.1497878833429378  0.8157474216948146  0.5991185217370099  1.0000
  H   H92       1.0  0.08621794922740567  0.7677255084911131  0.6421180154470385  1.0000
  H   H93       1.0  0.13119617448114687  0.8682009007060753  0.6172328407430631  1.0000
  H   H94       1.0  0.14114757770599048  0.8841886773195793  0.6889133395460092  1.0000
  H   H95       1.0  0.07752942319341258  0.8388026989765787  0.731566900080575  1.0000
  H   H96       1.0  0.06713437737926255  0.8236001457295906  0.6638929364188982  1.0000
  H   H97       1.0  0.10887887405458782  0.825706189448944  0.5129339883410227  1.0000
  H   H98       1.0  0.12787057116152684  0.8495511706344668  0.45693055208064154  1.0000
  H   H99       1.0  0.12047912951944068  0.8997795678037996  0.5188525904884864  1.0000
  H   H100      1.0  0.1006740934386145  0.8751556507605736  0.5724722326852236  1.0000
  H   H101      1.0  0.19083273249523625  0.8884715537901506  0.3460652590389068  1.0000
  H   H102      1.0  0.16462986553506812  0.8978590321330209  0.3641732883508606  1.0000
  H   H103      1.0  0.16749560678960362  0.8814740196502246  0.49345480571541606  1.0000
  H   H104      1.0  0.1934398251319434  0.8702126655808251  0.4710477704865743  1.0000
  H   H105      1.0  0.12708737148528929  0.9236582996671242  0.45350895849060924  1.0000
  H   H106      1.0  0.14463928496748407  0.961162330166474  0.4819729691371001  1.0000
  H   H107      1.0  0.20008627280683797  0.9574642266429322  0.5140912920552982  1.0000
  H   H108      1.0  0.1849572872927257  0.9221451603661064  0.48431902503614793  1.0000
  H   H109      1.0  0.15196065179618243  0.9259934034694498  0.3824574290975955  1.0000
  H   H110      1.0  0.13967864224602258  0.9207556897365725  0.31517342647007685  1.0000
  H   H111      1.0  0.08911489886906367  0.8555030122050662  0.34249585763754037  1.0000
  H   H112      1.0  0.10269673692650773  0.8593165413892414  0.4134153034544683  1.0000
  C   C177      1.0  0.5105567567976153  0.8551805175886221  0.334423035261058  1.0000
  C   C178      1.0  0.4932981883246773  0.8433689433395447  0.3608869231839638  1.0000
  C   C179      1.0  0.4845712491139306  0.8535026207799055  0.3842248331395055  1.0000
  C   C180      1.0  0.49462673635484306  0.8761665553761075  0.3858601536053298  1.0000
  C   C181      1.0  0.5118890697985935  0.8876236857253589  0.3590094494953156  1.0000
  C   C182      1.0  0.5201411313943941  0.8776435794577531  0.33389155610966514  1.0000
  H   H113      1.0  0.4855254776230289  0.8258239718753391  0.36342481475304106  1.0000
  H   H114      1.0  0.4698121416186285  0.8438545142810666  0.4013107871603192  1.0000
  H   H115      1.0  0.5194465246808594  0.9051119225778029  0.35722317637110756  1.0000
  H   H116      1.0  0.5346477908525172  0.887603425910914  0.3148495072239616  1.0000
  C   C183      1.0  0.5224243064670303  0.9166544093123242  0.4423227375349615  1.0000
  C   C184      1.0  0.5020764074442743  0.9123843533449746  0.4289917308914442  1.0000
  C   C185      1.0  0.4961458076796993  0.9277939419842943  0.4376400602780148  1.0000
  C   C186      1.0  0.5101350504731254  0.9473016569325335  0.45556568846108825  1.0000
  C   C187      1.0  0.5309149922946476  0.9520522207966569  0.4670380904982552  1.0000
  C   C188      1.0  0.5367378919019967  0.9363586559066635  0.4603301317413262  1.0000
  C   C189      1.0  0.48444315295341817  0.8885610548151364  0.41095603306163264  1.0000
  C   C190      1.0  0.47289182314707906  0.8770189234260765  0.454376936276316  1.0000
  C   C191      1.0  0.4545730142483366  0.8776934859772381  0.4677142326139326  1.0000
  C   C192      1.0  0.4463850351080209  0.871142372262312  0.5077670046384279  1.0000
  C   C193      1.0  0.4566219785616164  0.8645380613724181  0.5355391489339931  1.0000
  C   C194      1.0  0.4737213531876005  0.8619434441586814  0.5211955015404847  1.0000
  C   C195      1.0  0.48228589845016506  0.869362425797559  0.4820232866898947  1.0000
  C   C196      1.0  0.47710437621275725  0.907361277735729  0.3487037857135732  1.0000
  C   C197      1.0  0.46409785507955176  0.9083290389609548  0.31823650749644766  1.0000
  C   C198      1.0  0.44291963611559404  0.8916000763503275  0.3115530785465059  1.0000
  C   C199      1.0  0.4365910154384017  0.8727753000700812  0.3349953974240965  1.0000
  C   C200      1.0  0.448964276169375  0.871590413671291  0.3661859904626443  1.0000
  C   C201      1.0  0.4694539968543861  0.8894180817892887  0.3749569688841516  1.0000
  C   C202      1.0  0.42744729332530057  0.8917794645030324  0.27483919063463674  1.0000
  C   C203      1.0  0.43962489787379194  0.9571911803882096  0.24193748631636783  1.0000
  C   C204      1.0  0.43129011681380586  0.9406378074581923  0.21205200480342978  1.0000
  C   C205      1.0  0.4278510184841085  0.9206555055701444  0.22258850035861738  1.0000
  C   C206      1.0  0.43197951327940265  0.915973250992746  0.26290764092821906  1.0000
  C   C207      1.0  0.4380750996235367  0.932191351684082  0.29338781301824823  1.0000
  C   C208      1.0  0.4426334370258151  0.9529342778987615  0.28341235817672034  1.0000
  C   C209      1.0  0.40228386346788936  0.8766221505452434  0.2885717942463958  1.0000
  C   C210      1.0  0.39158461223233776  0.8541766364894768  0.28267048875770506  1.0000
  C   C211      1.0  0.36977019801889094  0.8411100476347609  0.2896108517116041  1.0000
  C   C212      1.0  0.35781754918374103  0.8498605504443048  0.30521117998615754  1.0000
  C   C213      1.0  0.3682738519431096  0.8718517574105296  0.3141221041013748  1.0000
  C   C214      1.0  0.3902026896030571  0.8851957872806285  0.3063854658745013  1.0000
  C   C215      1.0  0.41954903187325254  0.8717674226291651  0.20024562000958865  1.0000
  C   C216      1.0  0.4263960421571963  0.8685319337530223  0.1614916698166037  1.0000
  C   C217      1.0  0.4479527265504161  0.876036253108347  0.15437205058087392  1.0000
  C   C218      1.0  0.46286718464181875  0.8866057482402054  0.18536986449527743  1.0000
  C   C219      1.0  0.4560457998237447  0.891015014435437  0.22272624465939256  1.0000
  C   C220      1.0  0.4344629874490939  0.8836588797020895  0.232463949063966  1.0000
  H   H117      1.0  0.5279397774709109  0.9049577366156275  0.44039180144646906  1.0000
  H   H118      1.0  0.4803337136059882  0.9249492751129049  0.42908293145588444  1.0000
  H   H119      1.0  0.5049767771673725  0.9592484077845376  0.46027981418853153  1.0000
  H   H120      1.0  0.5524688452201277  0.939505245348791  0.46978354197261013  1.0000
  H   H121      1.0  0.4468101509849251  0.8840344377367605  0.4490747241505858  1.0000
  H   H122      1.0  0.4328255010925891  0.8728479396707395  0.5184060222074345  1.0000
  H   H123      1.0  0.48178998306598486  0.8568297451933943  0.5439673390270873  1.0000
  H   H124      1.0  0.49706957879168556  0.8696807034308222  0.47207613547181376  1.0000
  H   H125      1.0  0.4939440225058738  0.9215284119063009  0.35076995022520113  1.0000
  H   H126      1.0  0.4710743993379652  0.9225049614209285  0.2982598100675846  1.0000
  H   H127      1.0  0.42063916367646065  0.8580927052983504  0.3328663359714753  1.0000
  H   H128      1.0  0.44248270718035126  0.8567386464655762  0.3849324237256795  1.0000
  H   H129      1.0  0.4288096230590173  0.9446281818596005  0.18088688502598424  1.0000
  H   H130      1.0  0.4230747431172296  0.9092975920181053  0.19788258193647262  1.0000
  H   H131      1.0  0.43892874786304703  0.9285729835737827  0.3265011655429594  1.0000
  H   H132      1.0  0.4473555899184319  0.9653545280099727  0.3077902690515853  1.0000
  H   H133      1.0  0.3995190332073215  0.8458082739620929  0.26912972081597536  1.0000
  H   H134      1.0  0.36165704438950463  0.8243552928062988  0.27963634032419116  1.0000
  H   H135      1.0  0.3590377787694932  0.879471422485968  0.32498534926502226  1.0000
  H   H136      1.0  0.39731664095430685  0.9025252292592449  0.3142579614939202  1.0000
  H   H137      1.0  0.40269183881310605  0.8673773329754193  0.20324737651849104  1.0000
  H   H138      1.0  0.41386958113302125  0.8604228334725723  0.13795972279809782  1.0000
  H   H139      1.0  0.4797917519956168  0.8916877470717308  0.18121332014973915  1.0000
  H   H140      1.0  0.4693626527350059  0.9023190423335038  0.241759173488652  1.0000
  C   C221      1.0  0.5127405578192872  0.8615004025921118  0.8602540413527444  1.0000
  C   C222      1.0  0.49387793196037344  0.8548771701814473  0.8825667311700964  1.0000
  C   C223      1.0  0.4903986488559072  0.869926429495042  0.9036120476264345  1.0000
  C   C224      1.0  0.5050349316479309  0.8923633701017859  0.8996746991202578  1.0000
  C   C225      1.0  0.5229415316427548  0.8986421333599381  0.8736070619256093  1.0000
  C   C226      1.0  0.5270597601132011  0.8836609133668321  0.8557537652246782  1.0000
  H   H141      1.0  0.4818202327598866  0.837745971141428  0.8822207979946336  1.0000
  H   H142      1.0  0.4746165333607466  0.8638185053631554  0.9207986367528374  1.0000
  H   H143      1.0  0.5336766263040924  0.9153921289044382  0.865943069665583  1.0000
  H   H144      1.0  0.541401845271003  0.8887694605665988  0.8380325520998327  1.0000
  C   C227      1.0  0.5382316529217107  0.9373750918145975  0.943309451934318  1.0000
  C   C228      1.0  0.5190318866443342  0.9338904831338484  0.9255033279391318  1.0000
  C   C229      1.0  0.516823767076379  0.9522302044865961  0.9205942216946094  1.0000
  C   C230      1.0  0.5332606748345554  0.9728672008560306  0.9318716432146973  1.0000
  C   C231      1.0  0.5516098668212029  0.975626474277799  0.9500142658441975  1.0000
  C   C232      1.0  0.5536530318961623  0.9575948138610777  0.9568197148596661  1.0000
  C   C233      1.0  0.4997392906236601  0.9099357278228654  0.9181035028312771  1.0000
  C   C234      1.0  0.48920486430050647  0.9044226594806  0.9641912363440739  1.0000
  C   C235      1.0  0.47554924555194494  0.9119826368405354  0.9776291677872796  1.0000
  C   C236      1.0  0.46885955210167873  0.9093144459398718  0.018871095000083837  1.0000
  C   C237      1.0  0.4760738048904714  0.9001515571062272  0.047154465632042085  1.0000
  C   C238      1.0  0.4897094394150152  0.892746598501521  0.03472414318354804  1.0000
  C   C239      1.0  0.4959491561104773  0.8943863878330335  0.9936647428935061  1.0000
  C   C240      1.0  0.49297159454566114  0.9198160428204745  0.8427844159918719  1.0000
  C   C241      1.0  0.479379688074849  0.9180931244862472  0.8106849621559719  1.0000
  C   C242      1.0  0.45725451642860954  0.9054925639488229  0.8135687869005119  1.0000
  C   C243      1.0  0.44853989153955326  0.8950656276357568  0.8511339849087246  1.0000
  C   C244      1.0  0.462108125896699  0.8965323006786706  0.8834347089558031  1.0000
  C   C245      1.0  0.48449131799483364  0.9091121185451059  0.8807332853401435  1.0000
  C   C246      1.0  0.4432447559837237  0.9038806497915955  0.7733996555351791  1.0000
  C   C247      1.0  0.447607979967958  0.9671739310068362  0.7564552196316001  1.0000
  C   C248      1.0  0.46086141156145305  0.9620922083941651  0.7327462177241983  1.0000
  C   C249      1.0  0.4613572363436719  0.9434092036116104  0.7411618284290938  1.0000
  C   C250      1.0  0.44705547909354487  0.9281434351568082  0.770701376766569  1.0000
  C   C251      1.0  0.4359026618171418  0.934660039711931  0.7962186657275266  1.0000
  C   C252      1.0  0.4358251238289075  0.9537475682697141  0.7891113113952904  1.0000
  C   C253      1.0  0.41865616763554997  0.8853685176743094  0.7757991738340713  1.0000
  C   C254      1.0  0.41418001469023497  0.8643068559279771  0.7852903222299512  1.0000
  C   C255      1.0  0.3933308488503859  0.8474236099064669  0.790410133226801  1.0000
  C   C256      1.0  0.37642058603980494  0.8514531292280488  0.7837430574815175  1.0000
  C   C257      1.0  0.3805336738760636  0.8711815481607353  0.7696667220872303  1.0000
  C   C258      1.0  0.401426524490005  0.8879949730866039  0.7652985295352498  1.0000
  C   C259      1.0  0.44020306342975296  0.8985137827382091  0.6918757854667908  1.0000
  C   C260      1.0  0.4446186872773223  0.8923772585386839  0.6534331751317224  1.0000
  C   C261      1.0  0.45857425314091105  0.8842521772553495  0.6511468713266182  1.0000
  C   C262      1.0  0.46693501126682446  0.881651187785599  0.6882214731950836  1.0000
  C   C263      1.0  0.4622005535344695  0.8873817605372674  0.7265697381186621  1.0000
  C   C264      1.0  0.4492997931334554  0.896780647272674  0.7292554374990735  1.0000
  H   H145      1.0  0.5409676243692896  0.9241313167790661  0.9483569314490256  1.0000
  H   H146      1.0  0.5019979076444314  0.9507525319013684  0.9084236636124174  1.0000
  H   H147      1.0  0.5307822253444731  0.9866952986915349  0.9275128852038658  1.0000
  H   H148      1.0  0.568094958537032  0.9593999205803108  0.9713677773114024  1.0000
  H   H149      1.0  0.47114618519292717  0.9213955546517949  0.9583889935374474  1.0000
  H   H150      1.0  0.4576174175523158  0.9144531533309292  0.02936142420058239  1.0000
  H   H151      1.0  0.49556113125220597  0.8858612580772279  0.05861680415865017  1.0000
  H   H152      1.0  0.5080272573660283  0.8900352026093952  0.9851296280007235  1.0000
  H   H153      1.0  0.5104923576865118  0.92901365208869  0.8380262624057334  1.0000
  H   H154      1.0  0.48637705582479296  0.9265549899887433  0.7820888679333953  1.0000
  H   H155      1.0  0.4307531013881862  0.8844052931765961  0.8563544310111635  1.0000
  H   H156      1.0  0.45381973535679637  0.88661627999457  0.9109175273227994  1.0000
  H   H157      1.0  0.4703914415492779  0.9721676017489087  0.7060779147430645  1.0000
  H   H158      1.0  0.471654457261124  0.9398474586256135  0.7221260692374897  1.0000
  H   H159      1.0  0.427050536253302  0.9241928853234604  0.8226070773212405  1.0000
  H   H160      1.0  0.42610907399723214  0.9583201949507414  0.8087005636676351  1.0000
  H   H161      1.0  0.4272289476976227  0.8613538482543346  0.7914384982120404  1.0000
  H   H162      1.0  0.3899312573307765  0.8320039838005177  0.8050808447134742  1.0000
  H   H163      1.0  0.3674165762913145  0.8741171110344024  0.7625688022961431  1.0000
  H   H164      1.0  0.4040433179452965  0.9031310654676367  0.7538638656626787  1.0000
  H   H165      1.0  0.4297996215785791  0.9052205975064973  0.6930142200987685  1.0000
  H   H166      1.0  0.4381437309921134  0.8951772323707503  0.6247144318742089  1.0000
  H   H167      1.0  0.47858030988615086  0.8764483983470326  0.6856206846850131  1.0000
  H   H168      1.0  0.46931339932836685  0.8848293514240003  0.7532003029352  1.0000
  C   C265      1.0  0.650226990913114  0.13333595342942542  0.12921610454592253  1.0000
  C   C266      1.0  0.6358432159218259  0.13964139012130233  0.11582031405318224  1.0000
  C   C267      1.0  0.6163249357194814  0.12458065286234611  0.09767580451545232  1.0000
  C   C268      1.0  0.6099986859472847  0.1024166334996061  0.09256354115152177  1.0000
  C   C269      1.0  0.6244686034952835  0.09644016211333793  0.10755848636901519  1.0000
  C   C270      1.0  0.644442797100556  0.11178676933961441  0.12396672585062671  1.0000
  H   H169      1.0  0.6395826778441127  0.1561896648385957  0.11893276917823273  1.0000
  H   H170      1.0  0.6058676827043724  0.13046154700357288  0.08728711677159884  1.0000
  H   H171      1.0  0.6198456300800743  0.0794858190833289  0.10802014991590556  1.0000
  H   H172      1.0  0.6550841035140588  0.10611400963160357  0.1341478536892025  1.0000
  C   C271      1.0  0.5991453562145523  0.0598086884900806  0.03801302422808456  1.0000
  C   C272      1.0  0.583214566481527  0.06171472134378936  0.06066315613386525  1.0000
  C   C273      1.0  0.5639488501490109  0.042866260316408306  0.06893819217564089  1.0000
  C   C274      1.0  0.5606730341568823  0.023032239858645696  0.05479235566155621  1.0000
  C   C275      1.0  0.5761611115648279  0.021725765420678042  0.030955672963938047  1.0000
  C   C276      1.0  0.5954181177248881  0.04028258299491864  0.02257402660717886  1.0000
  C   C277      1.0  0.5864876553141931  0.08495397443138229  0.07314222371162905  1.0000
  C   C278      1.0  0.582615237755789  0.09225228462679787  0.027881962354539394  1.0000
  C   C279      1.0  0.5621628174572529  0.08252319912093359  0.008215755674889514  1.0000
  C   C280      1.0  0.5593380458630918  0.08463983660866996  0.9664177880552345  1.0000
  C   C281      1.0  0.5772045824649632  0.09686519285070537  0.9417527526447355  1.0000
  C   C282      1.0  0.5971540248360843  0.10840608914301457  0.9606155452486081  1.0000
  C   C283      1.0  0.5999116539933355  0.10579735817351342  0.0015520192940585709  1.0000
  C   C284      1.0  0.5718205646862408  0.07510654112063014  0.14794838599723428  1.0000
  C   C285      1.0  0.5592770887383686  0.07458954912838407  0.18136207141518818  1.0000
  C   C286      1.0  0.54632966545381  0.0837371899063911  0.1790311107819787  1.0000
  C   C287      1.0  0.5459360859274247  0.09300144539421544  0.14159862531926173  1.0000
  C   C288      1.0  0.5581616811866029  0.09355827643159036  0.10764528414758585  1.0000
  C   C289      1.0  0.5709031590120579  0.08399079661341174  0.11005895425820145  1.0000
  C   C290      1.0  0.5314168763540776  0.08243584708013839  0.2176448007965487  1.0000
  C   C291      1.0  0.48069372491338763  0.013852951131384995  0.20177370119101942  1.0000
  C   C292      1.0  0.49700100822904264  0.020004512354023157  0.23083617623106095  1.0000
  C   C293      1.0  0.5123146908391926  0.04149358392818016  0.23628651065283016  1.0000
  C   C294      1.0  0.5120320889661429  0.057865112448362135  0.21249385581390728  1.0000
  C   C295      1.0  0.49641408937557374  0.051521278278479216  0.18173662269880292  1.0000
  C   C296      1.0  0.4805538064788661  0.0296463705548936  0.17653252980102221  1.0000
  C   C297      1.0  0.5245574779584556  0.10061464795032707  0.2166312165924426  1.0000
  C   C298      1.0  0.5401175503600338  0.12256719146764189  0.2090870430050084  1.0000
  C   C299      1.0  0.5338668502959496  0.13775167098062138  0.20871154826727878  1.0000
  C   C300      1.0  0.5124094174494724  0.13178693112711348  0.21610068089516463  1.0000
  C   C301      1.0  0.497822637874458  0.11095924154474482  0.22737873138466252  1.0000
  C   C302      1.0  0.5036797041047889  0.09560149622577188  0.2295115666537433  1.0000
  C   C303      1.0  0.5302670253465238  0.0814322133039187  0.29848372317752053  1.0000
  C   C304      1.0  0.5391066286597842  0.08448964880252709  0.33703954800637675  1.0000
  C   C305      1.0  0.5612820314284891  0.0948569756191624  0.34190777123925353  1.0000
  C   C306      1.0  0.5744181169532473  0.10241113280401175  0.3071496637075692  1.0000
  C   C307      1.0  0.5651504841766849  0.09925348851518967  0.2681604789552695  1.0000
  C   C308      1.0  0.5429258981142888  0.0879060030940515  0.2621575949068747  1.0000
  H   H173      1.0  0.6142148721951445  0.07489201371638315  0.030254780901979875  1.0000
  H   H174      1.0  0.5499472784882894  0.04316935326838841  0.0815987174281702  1.0000
  H   H175      1.0  0.5451501787206136  0.008437490011219231  0.058695739819596686  1.0000
  H   H176      1.0  0.6073591509953057  0.039317309216408754  0.0037488149255495975  1.0000
  H   H177      1.0  0.548096421471221  0.07031508616653893  0.02491514509635875  1.0000
  H   H178      1.0  0.542954622140493  0.07581261323815056  0.9538415447036361  1.0000
  H   H179      1.0  0.6108729453009409  0.11742338964232864  0.940834457306234  1.0000
  H   H180      1.0  0.6166446965755276  0.11373424483266226  0.013446642669533325  1.0000
  H   H181      1.0  0.5816806223606698  0.06756860907772348  0.1503041909221361  1.0000
  H   H182      1.0  0.5604625738009245  0.06691818159924043  0.20929932018086062  1.0000
  H   H183      1.0  0.5344557729077238  0.09860147829576368  0.1366907770135592  1.0000
  H   H184      1.0  0.557310422935187  0.10087047268942337  0.07904164229209003  1.0000
  H   H185      1.0  0.4981070156949118  0.008712341311674929  0.25100030654408384  1.0000
  H   H186      1.0  0.5251930077009245  0.04579605668458482  0.2590429383888894  1.0000
  H   H187      1.0  0.4961605750484135  0.06340970329583123  0.1606255789391268  1.0000
  H   H188      1.0  0.4677359979487148  0.02518498675752924  0.15386447226705846  1.0000
  H   H189      1.0  0.5569477498644864  0.12722814567371385  0.20288068735250045  1.0000
  H   H190      1.0  0.5452340494682734  0.15387613192137478  0.19813700006279028  1.0000
  H   H191      1.0  0.4808529339467696  0.10596829076481494  0.2336234541711764  1.0000
  H   H192      1.0  0.4919345410327217  0.07922054282597508  0.239972900364444  1.0000
  H   H193      1.0  0.5126744412370572  0.07366150232961154  0.29638736813421585  1.0000
  H   H194      1.0  0.528857735788758  0.07894339571176032  0.36453180091452203  1.0000
  H   H195      1.0  0.5919914827303522  0.10960628486061534  0.30841892397681275  1.0000
  H   H196      1.0  0.5756669359220019  0.10608699938868693  0.24096698651684215  1.0000
  C   C309      1.0  0.6536864299014598  0.11056795847043463  0.6113708458424931  1.0000
  C   C310      1.0  0.6428867341833353  0.11894740061010804  0.5896871254350736  1.0000
  C   C311      1.0  0.6207086461267421  0.10549102623180001  0.5813438462123203  1.0000
  C   C312      1.0  0.6100985348578535  0.08305239479380984  0.5903978608682972  1.0000
  C   C313      1.0  0.6214434460666423  0.0756496558922596  0.6133804031072272  1.0000
  C   C314      1.0  0.6429450672851915  0.08935078910573524  0.6238495989355519  1.0000
  H   H197      1.0  0.6511515951065526  0.13535988396301055  0.577670664858315  1.0000
  H   H198      1.0  0.6119870353510688  0.11192845274737416  0.564345947908897  1.0000
  H   H199      1.0  0.6139673217054092  0.05895537226787464  0.6232457883020169  1.0000
  H   H200      1.0  0.6513059690406009  0.08232482895992294  0.6406871100394422  1.0000
  C   C315      1.0  0.5898656295294988  0.034395982874099985  0.5559712202156472  1.0000
  C   C316      1.0  0.5767494972153276  0.04176703158457336  0.5730068566836662  1.0000
  C   C317      1.0  0.5550183491271871  0.02629301574537662  0.5809727542604601  1.0000
  C   C318      1.0  0.54636279326509  0.004754382154433991  0.5675914300641484  1.0000
  C   C319      1.0  0.5594123049830388  0.998310305265833  0.5499362587273458  1.0000
  C   C320      1.0  0.5815309020560222  0.012895088004992058  0.5448384616598436  1.0000
  C   C321      1.0  0.5855434163554066  0.06743795608600947  0.5763120909328611  1.0000
  C   C322      1.0  0.5817409438514389  0.07070674100543772  0.5281298892849895  1.0000
  C   C323      1.0  0.5613880264798348  0.06524883866353512  0.5133428184574786  1.0000
  C   C324      1.0  0.5583538926799985  0.06795271366902486  0.4714723248382786  1.0000
  C   C325      1.0  0.5750169863895974  0.07418277177479388  0.44359325574302494  1.0000
  C   C326      1.0  0.5951470988507054  0.07809282585157885  0.4567670200340591  1.0000
  C   C327      1.0  0.5983755806324625  0.0761311385453797  0.49892998442887765  1.0000
  C   C328      1.0  0.5726498655936509  0.0673948934294042  0.6529362892978758  1.0000
  C   C329      1.0  0.5612015216754211  0.07135993543902737  0.6834664644559947  1.0000
  C   C330      1.0  0.5490007299021396  0.08100568445211817  0.6732048285329475  1.0000
  C   C331      1.0  0.5483483828575217  0.08546277999833948  0.6311487889378175  1.0000
  C   C332      1.0  0.5622745983091587  0.08441194645718665  0.602448914762602  1.0000
  C   C333      1.0  0.5736170418670814  0.07409997987834858  0.6118142692764954  1.0000
  C   C334      1.0  0.5333923999462101  0.08356989994618405  0.7057036779441548  1.0000
  C   C335      1.0  0.473851740193435  0.019691194862724  0.7035997752679308  1.0000
  C   C336      1.0  0.4911573306937451  0.022679787155804577  0.7273842535045246  1.0000
  C   C337      1.0  0.510286813308403  0.04253189174005008  0.7274094122809218  1.0000
  C   C338      1.0  0.5125976822214532  0.05952387369909736  0.7023009534364204  1.0000
  C   C339      1.0  0.4959306052377891  0.055460041792936225  0.6743432631649251  1.0000
  C   C340      1.0  0.4765384628470257  0.03611502858114095  0.6763119374180137  1.0000
  C   C341      1.0  0.529508415132464  0.10381847794671233  0.6983510255420449  1.0000
  C   C342      1.0  0.5447057256920963  0.12256552643378336  0.678494461270479  1.0000
  C   C343      1.0  0.5399794241704899  0.1380793458308327  0.6662672959413931  1.0000
  C   C344      1.0  0.5202024378071817  0.13622955897188738  0.6769912243807406  1.0000
  C   C345      1.0  0.505422896058033  0.11856394210317854  0.700099560501657  1.0000
  C   C346      1.0  0.5101897041115194  0.1024349376952932  0.7104586866832436  1.0000
  C   C347      1.0  0.52855885530959  0.08404774939620413  0.7871457819892517  1.0000
  C   C348      1.0  0.5367435168832418  0.09153311470427036  0.8268840693087808  1.0000
  C   C349      1.0  0.5586414465378832  0.10517108031422738  0.8333498748428859  1.0000
  C   C350      1.0  0.5726248017125856  0.11206658232431892  0.7993635127771886  1.0000
  C   C351      1.0  0.5644020817904736  0.10521386623767073  0.7592541335057994  1.0000
  C   C352      1.0  0.5425219149315949  0.09059945830446045  0.7527788934305454  1.0000
  H   H201      1.0  0.6063354587303973  0.04587925383194171  0.5473700635348215  1.0000
  H   H202      1.0  0.5447275846544144  0.03193219562704497  0.5925174877797694  1.0000
  H   H203      1.0  0.5295172047718412  0.9933370231694565  0.5721137201215623  1.0000
  H   H204      1.0  0.5922965572003757  0.007023957007909097  0.5336270819277985  1.0000
  H   H205      1.0  0.54722454301894  0.057337403561313914  0.5341711404673901  1.0000
  H   H206      1.0  0.543004606345822  0.06538930081962452  0.46236484778245746  1.0000
  H   H207      1.0  0.6082314685124204  0.0824665743026451  0.4340266310179531  1.0000
  H   H208      1.0  0.6140571574590052  0.0781743044936224  0.5078456258146694  1.0000
  H   H209      1.0  0.5803463393142978  0.05814716615495743  0.6615531702139498  1.0000
  H   H210      1.0  0.5612994916820021  0.06611133108862907  0.7151004809285448  1.0000
  H   H211      1.0  0.5378652534286562  0.09155520835089506  0.6214532254837095  1.0000
  H   H212      1.0  0.561759531935992  0.08989795032586022  0.5716860209228082  1.0000
  H   H213      1.0  0.48946082648517414  0.010948454370059375  0.7504202581432987  1.0000
  H   H214      1.0  0.5228336236593427  0.04503243265183928  0.7487660685951766  1.0000
  H   H215      1.0  0.4978846352559251  0.06827591505177277  0.65326964308514  1.0000
  H   H216      1.0  0.46303464403642425  0.03410335661069363  0.658181894176712  1.0000
  H   H217      1.0  0.5610460636596912  0.12602486435741933  0.671107215550823  1.0000
  H   H218      1.0  0.5518384483183807  0.1520122841592507  0.6488354087451166  1.0000
  H   H219      1.0  0.49007231402547036  0.11746081150980225  0.707310694786532  1.0000
  H   H220      1.0  0.49783242506971237  0.08807149552950531  0.7272773287048361  1.0000
  H   H221      1.0  0.511144204127772  0.07275064278694186  0.7835952496701832  1.0000
  H   H222      1.0  0.5263842021277916  0.0860335999240642  0.8532190185026506  1.0000
  H   H223      1.0  0.5897538998275864  0.12265797929031806  0.8038197610465596  1.0000
  H   H224      1.0  0.5758301324596993  0.11167968097093112  0.7337274100036928  1.0000
  C   C353      1.0  0.5489799379127779  0.8313881858227467  0.3072172779191369  1.0000
  C   C354      1.0  0.5419089122764595  0.8125513510271991  0.28479546190916166  1.0000
  C   C355      1.0  0.5565748525452964  0.8076983375457606  0.2666868036277979  1.0000
  C   C356      1.0  0.5789661759817432  0.8219398051764103  0.27014613538242616  1.0000
  C   C357      1.0  0.5859221835728912  0.8409038287104931  0.2941388024937075  1.0000
  C   C358      1.0  0.570957015733102  0.8456910572891895  0.3121244972554295  1.0000
  H   H225      1.0  0.5243471718736091  0.8009721561980322  0.28104774768007945  1.0000
  H   H226      1.0  0.5501622506648465  0.7927647108227509  0.24717554356228488  1.0000
  H   H227      1.0  0.6030643025708442  0.8512751843740082  0.300526615820981  1.0000
  H   H228      1.0  0.5773429555105707  0.860757334920056  0.3299762215328359  1.0000
  C   C359      1.0  0.6257156108017  0.8547200545152309  0.23085598876747382  1.0000
  C   C360      1.0  0.6206443770935162  0.834406896186525  0.24523957571851296  1.0000
  C   C361      1.0  0.6372601177053951  0.8295100121870407  0.2489190467666175  1.0000
  C   C362      1.0  0.6582047060211816  0.8444019348976138  0.23562106101712169  1.0000
  C   C363      1.0  0.6624663978577839  0.8643760577629908  0.21994871574513108  1.0000
  C   C364      1.0  0.6463670479151526  0.8698592255979619  0.21935402516804  1.0000
  C   C365      1.0  0.5954940557884889  0.8153294496535946  0.24901622254045205  1.0000
  C   C366      1.0  0.5910556431163491  0.8086104192198312  0.20024687794840854  1.0000
  C   C367      1.0  0.599316690620407  0.7972770177670948  0.1783854736826831  1.0000
  C   C368      1.0  0.5979199402187569  0.794926918378224  0.13521144096139817  1.0000
  C   C369      1.0  0.5901012238103412  0.8055977576444339  0.11254149651920463  1.0000
  C   C370      1.0  0.5816407779529797  0.8167906630092336  0.1327550009309072  1.0000
  C   C371      1.0  0.5816375311661609  0.8178979016173237  0.17605294062594876  1.0000
  C   C372      1.0  0.6006162856654229  0.8043327880072015  0.3240827781617693  1.0000
  C   C373      1.0  0.5978314932841674  0.7891993849778957  0.35357515379349963  1.0000
  C   C374      1.0  0.5872878548531346  0.7671134456396059  0.34528533697059055  1.0000
  C   C375      1.0  0.5820274678927725  0.7613980251169264  0.3030924965288002  1.0000
  C   C376      1.0  0.5840057695262555  0.7763231983138152  0.27400266131942663  1.0000
  C   C377      1.0  0.5935440962135716  0.7981863207491117  0.28274219127043737  1.0000
  C   C378      1.0  0.5839201892833138  0.7501041194293255  0.38117747634838306  1.0000
  C   C379      1.0  0.6506598194964376  0.7627887566920348  0.39335746897172397  1.0000
  C   C380      1.0  0.6436480797283721  0.774175767361056  0.4173715210429431  1.0000
  C   C381      1.0  0.6228625577214537  0.7704809231526525  0.4123932281633282  1.0000
  C   C382      1.0  0.608358123630479  0.7549201601292623  0.3852469084306457  1.0000
  C   C383      1.0  0.6162370396813254  0.7452333983393805  0.35746218474688185  1.0000
  C   C384      1.0  0.6370867643809566  0.7489134973187639  0.36186182576935905  1.0000
  C   C385      1.0  0.5653731337745284  0.725431606432872  0.3710510688484714  1.0000
  C   C386      1.0  0.545458529729301  0.720295487251379  0.35347451868791047  1.0000
  C   C387      1.0  0.5300876712762993  0.6988420607708125  0.3444236488789832  1.0000
  C   C388      1.0  0.5334828628416586  0.6819703226910695  0.3541286468742401  1.0000
  C   C389      1.0  0.5522383718629528  0.686507349182954  0.3738531275697203  1.0000
  C   C390      1.0  0.5678735702888188  0.7079453952800511  0.3826744235440222  1.0000
  C   C391      1.0  0.5782155053558888  0.7464030218603422  0.46246862773509634  1.0000
  C   C392      1.0  0.5717636366096335  0.7510361370600422  0.5008766447526184  1.0000
  C   C393      1.0  0.5603953274739953  0.761955780951812  0.5016597116679843  1.0000
  C   C394      1.0  0.5556679596479789  0.7683163767664855  0.46476436608134963  1.0000
  C   C395      1.0  0.562064553700734  0.7640440192254682  0.4272337613906832  1.0000
  C   C396      1.0  0.5743910289757808  0.7537786175987103  0.42528081137284307  1.0000
  H   H229      1.0  0.612681016300885  0.8587639556578098  0.22578209253754913  1.0000
  H   H230      1.0  0.6342077321565202  0.813684289416011  0.2594501960818206  1.0000
  H   H231      1.0  0.6708158429093914  0.8403307554811524  0.23631481427627715  1.0000
  H   H232      1.0  0.6501327937966423  0.8854714551225874  0.20795992982240957  1.0000
  H   H233      1.0  0.6075162560940744  0.7904568440653934  0.19476698196437248  1.0000
  H   H234      1.0  0.6051946247078788  0.7869462712023678  0.11825662706255541  1.0000
  H   H235      1.0  0.5756769134635638  0.8259104510046247  0.11511523934464801  1.0000
  H   H236      1.0  0.5760237515065881  0.8283639889054595  0.18980850162117038  1.0000
  H   H237      1.0  0.608777581971935  0.8213426639665478  0.33346385691091107  1.0000
  H   H238      1.0  0.603931443829518  0.7949479517814307  0.3856463040059528  1.0000
  H   H239      1.0  0.5759572476938799  0.7444616278195129  0.2919531337941924  1.0000
  H   H240      1.0  0.5782599332203749  0.7707704846235408  0.24348852488126116  1.0000
  H   H241      1.0  0.6550693654724491  0.7873652273471577  0.43845772051092685  1.0000
  H   H242      1.0  0.6176447502519666  0.7795802783819988  0.43099499846207895  1.0000
  H   H243      1.0  0.6059868843858335  0.7329214572821655  0.3349167762478549  1.0000
  H   H244      1.0  0.6420289049320509  0.7395130620162713  0.34208702752108433  1.0000
  H   H245      1.0  0.5417399984724672  0.7325395313887978  0.3443450277027416  1.0000
  H   H246      1.0  0.5153717304966451  0.6956188678349181  0.32879061419511335  1.0000
  H   H247      1.0  0.5550233841826655  0.6733135113735456  0.38205488867523874  1.0000
  H   H248      1.0  0.5825767196208732  0.7113582791277707  0.3982854442985444  1.0000
  H   H249      1.0  0.5869341779478546  0.7375237753332339  0.46301583112173755  1.0000
  H   H250      1.0  0.5763223167166328  0.7464831644679107  0.529230585752371  1.0000
  H   H251      1.0  0.546374149193058  0.7763032009772431  0.464471895305731  1.0000
  H   H252      1.0  0.557389811264894  0.7690839675215708  0.3987068538031991  1.0000
  C   C397      1.0  0.536763614323969  0.8406793193241835  0.7750569899303509  1.0000
  C   C398      1.0  0.5299819267939458  0.8216567698071084  0.7523323251494932  1.0000
  C   C399      1.0  0.5451795276571719  0.816389779950753  0.7393189480579919  1.0000
  C   C400      1.0  0.5671144937411359  0.8296154485087525  0.7473571771169281  1.0000
  C   C401      1.0  0.5736545092728557  0.8481002630121227  0.7708083015662577  1.0000
  C   C402      1.0  0.558631586686064  0.853568350173816  0.7849255199721903  1.0000
  H   H253      1.0  0.5128950180971704  0.8106473777380739  0.7459199820152325  1.0000
  H   H254      1.0  0.5390842735981753  0.8005243953073202  0.7246010638655738  1.0000
  H   H255      1.0  0.5902192324611312  0.8578099461776563  0.7820511297687992  1.0000
  H   H256      1.0  0.5639432753044529  0.8677142217138759  0.8041122318221782  1.0000
  C   C403      1.0  0.6111933355569568  0.8608035433133043  0.7056061876856152  1.0000
  C   C404      1.0  0.6075538409493864  0.8415008972517413  0.723267648716517  1.0000
  C   C405      1.0  0.6254068392541723  0.8396950942481716  0.7313027329284035  1.0000
  C   C406      1.0  0.6456802575048524  0.8554286811574331  0.7200158768671665  1.0000
  C   C407      1.0  0.6487158367829745  0.8741383328614283  0.6997819309496411  1.0000
  C   C408      1.0  0.6315038274088435  0.8772968715912467  0.6940017020723624  1.0000
  C   C409      1.0  0.5832424598335304  0.8216846995042871  0.7318310672327467  1.0000
  C   C410      1.0  0.5781534739373212  0.8108348907889025  0.6857905064256948  1.0000
  C   C411      1.0  0.5873013812806893  0.798391190553391  0.6732048285329475  1.0000
  C   C412      1.0  0.5846594194475866  0.790035772222933  0.6339351234238181  1.0000
  C   C413      1.0  0.5732419468496794  0.794600789678415  0.6046471628503157  1.0000
  C   C414      1.0  0.5637524020873492  0.8067146405762791  0.6151540968432365  1.0000
  C   C415      1.0  0.5668685801485587  0.8155634024590803  0.6547603005866798  1.0000
  C   C416      1.0  0.5909685872844296  0.8142564193490943  0.8071344298369034  1.0000
  C   C417      1.0  0.5900921528623844  0.8009589611031944  0.8396773071068059  1.0000
  C   C418      1.0  0.5788908236103643  0.7784679479430708  0.8361645129523334  1.0000
  C   C419      1.0  0.5684603006462842  0.7701213855786949  0.798272250850956  1.0000
  C   C420      1.0  0.568981285459484  0.7834771658568568  0.766672827695952  1.0000
  C   C421      1.0  0.5812271696033344  0.8058197833391152  0.7686352122549411  1.0000
  C   C422      1.0  0.5806533319060951  0.7644391462553423  0.873795752748589  1.0000
  C   C423      1.0  0.6502636413335784  0.7862221766961893  0.862584373016544  1.0000
  C   C424      1.0  0.6433028587220322  0.7962428650878892  0.8910169351925382  1.0000
  C   C425      1.0  0.6215585513596156  0.7887778135111873  0.895856854801968  1.0000
  C   C426      1.0  0.6059329719502563  0.7711948936201468  0.8720314935537287  1.0000
  C   C427      1.0  0.6132330182682099  0.7621544327461406  0.8414478559957657  1.0000
  C   C428      1.0  0.6351269533261008  0.7692087344172758  0.8376929086184692  1.0000
  C   C429      1.0  0.5632166024938553  0.7392112328405123  0.8702169168060736  1.0000
  C   C430      1.0  0.5413894869496915  0.7324597390646925  0.8649052701391946  1.0000
  C   C431      1.0  0.5256037422272334  0.7106820966397578  0.8608767210685775  1.0000
  C   C432      1.0  0.5315789172652915  0.6947640477448939  0.8614553729257154  1.0000
  C   C433      1.0  0.553305145911488  0.7010462679392734  0.8685501478697528  1.0000
  C   C434      1.0  0.5683676077040055  0.7225760473583597  0.8734215159496792  1.0000
  C   C435      1.0  0.5803618327993258  0.7600356320092927  0.9542881129846882  1.0000
  C   C436      1.0  0.5780350994110413  0.7656465307523266  0.9948283363018812  1.0000
  C   C437      1.0  0.5698082697065322  0.7791474185349726  0.002085105925408054  1.0000
  C   C438      1.0  0.562901320585183  0.7864232659809576  0.9686852227780408  1.0000
  C   C439      1.0  0.5659631321380814  0.7819113794661038  0.9280569437434574  1.0000
  C   C440      1.0  0.5756388285556294  0.7693169534569289  0.9199558177435281  1.0000
  H   H257      1.0  0.5972637193611697  0.8621701508891846  0.6967219947703199  1.0000
  H   H258      1.0  0.6226668673852179  0.824352444699598  0.7442940960905573  1.0000
  H   H259      1.0  0.6584648460466632  0.8512746387319113  0.7220474480612482  1.0000
  H   H260      1.0  0.6335473729309506  0.8914380142967525  0.6784409988706348  1.0000
  H   H261      1.0  0.597530670062687  0.795940103457328  0.694665264799841  1.0000
  H   H262      1.0  0.5929764405611384  0.7811361782283854  0.6262428275403448  1.0000
  H   H263      1.0  0.5541874108267696  0.8099933346939036  0.5930835602487085  1.0000
  H   H264      1.0  0.5596603390134874  0.8254912754898948  0.6605153706875613  1.0000
  H   H265      1.0  0.6007554812458411  0.8321769337342505  0.8117730792351548  1.0000
  H   H266      1.0  0.5978303169346557  0.808078169125081  0.8699779084302993  1.0000
  H   H267      1.0  0.5596648495574129  0.7529342577066467  0.7909699160016407  1.0000
  H   H268      1.0  0.5601845955238433  0.7751138780235527  0.7383534800137457  1.0000
  H   H269      1.0  0.6543899556751822  0.8093110489304061  0.9108829340052531  1.0000
  H   H270      1.0  0.6170055956015826  0.7961992458427811  0.9203111854601398  1.0000
  H   H271      1.0  0.6021951809059164  0.749956210014799  0.8191980631194069  1.0000
  H   H272      1.0  0.6400137433244011  0.7613141799284403  0.8148204360262774  1.0000
  H   H273      1.0  0.5360801100460444  0.7444833149464051  0.8638926293892033  1.0000
  H   H274      1.0  0.5085963059400569  0.705145365884923  0.8559110075771612  1.0000
  H   H275      1.0  0.5580392075429906  0.6888213029594186  0.8700691089947395  1.0000
  H   H276      1.0  0.5844789190176933  0.7265341569594903  0.8835007507438459  1.0000
  H   H277      1.0  0.5880614322206645  0.7506563963449329  0.9498979065033599  1.0000
  H   H278      1.0  0.5845011651152217  0.7604057831264384  0.020862632291223294  1.0000
  H   H279      1.0  0.5553206353223528  0.7963619815754753  0.9747988054425838  1.0000
  H   H280      1.0  0.5603272390876994  0.7882167041282577  0.9032661144509717  1.0000
  C   C441      1.0  0.8125347571829729  0.9693342634708835  0.036664199328484526  1.0000
  C   C442      1.0  0.8218306801722542  0.9583748442780536  0.05225006130660944  1.0000
  C   C443      1.0  0.8089557912137815  0.9381325368393456  0.06795322607968675  1.0000
  C   C444      1.0  0.7863883036267606  0.9283371710290849  0.06904826182237907  1.0000
  C   C445      1.0  0.7769526732603845  0.9394023186248658  0.050970737526806933  1.0000
  C   C446      1.0  0.7901740015091573  0.9599746672351993  0.034559982167555674  1.0000
  H   H281      1.0  0.8389785338035312  0.9655077995423685  0.05424861160666965  1.0000
  H   H282      1.0  0.8166554269544978  0.9299978303145005  0.0817113029525481  1.0000
  H   H283      1.0  0.7593531759967695  0.9308627248222292  0.04617421680666244  1.0000
  H   H284      1.0  0.7837820434004791  0.96876515809701  0.01845801934011073  1.0000
  C   C447      1.0  0.7446649512535494  0.9123248894723012  0.12520485213407864  1.0000
  C   C448      1.0  0.7487432944405688  0.8978020389049018  0.1034764748985539  1.0000
  C   C449      1.0  0.7324009248777507  0.8760897279322715  0.09941270354098065  1.0000
  C   C450      1.0  0.7119035278661034  0.8697328204536305  0.11476867719977528  1.0000
  C   C451      1.0  0.7082517041648868  0.8844089675293273  0.13633320790401263  1.0000
  C   C452      1.0  0.7243687750727807  0.905625499806372  0.14149358742780302  1.0000
  C   C453      1.0  0.772426939266422  0.9043574547108529  0.08717987748720536  1.0000
  C   C454      1.0  0.7815418147429902  0.900912103932625  0.12929158087511444  1.0000
  C   C455      1.0  0.7778203131648938  0.8804901416308566  0.14167001334728907  1.0000
  C   C456      1.0  0.783352006181901  0.8774469579441664  0.1814145903609175  1.0000
  C   C457      1.0  0.7930850189677537  0.8946527737613154  0.20950247730026877  1.0000
  C   C458      1.0  0.7984031074138498  0.9150558222286294  0.196232480689515  1.0000
  C   C459      1.0  0.7924571681362513  0.9181208397888937  0.15725681877952888  1.0000
  C   C460      1.0  0.7604736737847705  0.8865097920095723  0.014939344321655399  1.0000
  C   C461      1.0  0.7613974269091663  0.8752991285429944  0.9797519395458014  1.0000
  C   C462      1.0  0.7772796652690521  0.8695026161278301  0.9766070924961395  1.0000
  C   C463      1.0  0.7915191204900202  0.8747286523291207  0.010362774204164264  1.0000
  C   C464      1.0  0.7902812787499602  0.8856017249205741  0.04454612948905241  1.0000
  C   C465      1.0  0.7740083890962833  0.8907465328772702  0.0486048690913462  1.0000
  C   C466      1.0  0.7778298821413484  0.8567447253573357  0.9348781169941742  1.0000
  C   C467      1.0  0.7098476452713326  0.8078540886560213  0.9002313370480478  1.0000
  C   C468      1.0  0.7251763660392091  0.8172092173830314  0.8688206047160237  1.0000
  C   C469      1.0  0.7463805754029965  0.8319755284198095  0.8796105749434141  1.0000
  C   C470      1.0  0.752996474215835  0.8380240359647465  0.9204464138832753  1.0000
  C   C471      1.0  0.7374190528615425  0.8275987446136163  0.9517376420274123  1.0000
  C   C472      1.0  0.7163577333324077  0.8123971915885926  0.9420483682674037  1.0000
  C   C473      1.0  0.7911369179418747  0.8441743181353413  0.9459982961617791  1.0000
  C   C474      1.0  0.8138618514829751  0.8552025214350368  0.9418533877503246  1.0000
  C   C475      1.0  0.8256852811745132  0.8455671762248029  0.9514074330871978  1.0000
  C   C476      1.0  0.8157173152872478  0.8244480971169894  0.9648359299892545  1.0000
  C   C477      1.0  0.7932775757372825  0.8127187211990828  0.9686160361429483  1.0000
  C   C478      1.0  0.7811231173853588  0.8225098658565523  0.9603419435552875  1.0000
  C   C479      1.0  0.7969931577440941  0.8672824345263024  0.8612006403146927  1.0000
  C   C480      1.0  0.8038303953315586  0.879279042425878  0.8251009410316225  1.0000
  C   C481      1.0  0.8025566959854099  0.8981063360566951  0.822509587062701  1.0000
  C   C482      1.0  0.7969012890038776  0.905664300954085  0.858071517500279  1.0000
  C   C483      1.0  0.7914314847221604  0.8938976350590908  0.8944951360294644  1.0000
  C   C484      1.0  0.7887472674678179  0.8734899084123341  0.8952907823330288  1.0000
  H   H285      1.0  0.7575825891481269  0.9293356072413029  0.1320263398695005  1.0000
  H   H286      1.0  0.7353476623420996  0.8642502033181694  0.08302836489694655  1.0000
  H   H287      1.0  0.6989350231405144  0.8530566338671947  0.11222984217658313  1.0000
  H   H288      1.0  0.7214289346113836  0.9170296484005115  0.16064381905201486  1.0000
  H   H289      1.0  0.7696114107212432  0.8664186789856174  0.12219083072168258  1.0000
  H   H290      1.0  0.7789066883635938  0.8609842095536197  0.18999121723475576  1.0000
  H   H291      1.0  0.8075319091043553  0.9291287317684066  0.2162164112665922  1.0000
  H   H292      1.0  0.7956259680229543  0.9340240427309513  0.14864591307284933  1.0000
  H   H293      1.0  0.7482133882027252  0.8910860451510287  0.015250243900984985  1.0000
  H   H294      1.0  0.75053545806336  0.872720839347025  0.9545554249839094  1.0000
  H   H295      1.0  0.8048227662838214  0.8716500770628635  0.009799123267453342  1.0000
  H   H296      1.0  0.8024239134371827  0.8904639792753923  0.06930236546399174  1.0000
  H   H297      1.0  0.7202513205403009  0.8130823157249611  0.836950724714749  1.0000
  H   H298      1.0  0.757408517670884  0.8378449063405887  0.8533919850903819  1.0000
  H   H299      1.0  0.7409810409719733  0.8313861286939793  0.985003834118737  1.0000
  H   H300      1.0  0.7050507891213721  0.8042169314130099  0.9678769970862776  1.0000
  H   H301      1.0  0.8221443371545862  0.8716556395847164  0.9304879105128461  1.0000
  H   H302      1.0  0.8430931450665633  0.8548263291668374  0.947004647217671  1.0000
  H   H303      1.0  0.784898128744205  0.7959663136297973  0.9811451067888017  1.0000
  H   H304      1.0  0.7634959772934893  0.8129402260339698  0.9671379580296071  1.0000
  H   H305      1.0  0.7968368711440055  0.8518506762015475  0.8613673172083248  1.0000
  H   H306      1.0  0.8086708068350729  0.8735104565290355  0.7968885181491047  1.0000
  H   H307      1.0  0.7970310093059477  0.9211953896570743  0.85945839504918  1.0000
  H   H308      1.0  0.7882127114743375  0.9011350607827974  0.9215250964213094  1.0000
  C   C485      1.0  0.8077324018139754  0.9714511993294977  0.5269222680179192  1.0000
  C   C486      1.0  0.8150293258387102  0.9581269612104556  0.5421338931971343  1.0000
  C   C487      1.0  0.8007359318328038  0.9392531244583714  0.5621571343623323  1.0000
  C   C488      1.0  0.7787976993855819  0.9324492911047451  0.5659781235276716  1.0000
  C   C489      1.0  0.7716188663137918  0.9449028019810085  0.5466058657017537  1.0000
  C   C490      1.0  0.786141279316446  0.9648772399712016  0.5304728003369875  1.0000
  H   H309      1.0  0.8315712122655085  0.9609104813375361  0.5379197981505872  1.0000
  H   H310      1.0  0.8058654248777243  0.9280961787994685  0.572748979225594  1.0000
  H   H311      1.0  0.7544934562241941  0.9385991260057742  0.5445805842017714  1.0000
  H   H312      1.0  0.7806045080200685  0.9749923301254619  0.5170820415995268  1.0000
  C   C491      1.0  0.7355638472864061  0.920009759301422  0.6181888742461603  1.0000
  C   C492      1.0  0.7389960199270427  0.9044132352732398  0.5996814493588994  1.0000
  C   C493      1.0  0.7216218493975342  0.8833417499221417  0.5966152234854789  1.0000
  C   C494      1.0  0.7010899476238021  0.8782390527467793  0.6089587481554024  1.0000
  C   C495      1.0  0.697176821856714  0.8941913295640378  0.624315036298902  1.0000
  C   C496      1.0  0.7151116651355759  0.9151292709193616  0.6304411983516436  1.0000
  C   C497      1.0  0.7630564320645197  0.9097000053397806  0.5893506268007598  1.0000
  C   C498      1.0  0.772048387796386  0.9095131220169338  0.6348628533034683  1.0000
  C   C499      1.0  0.763516116842314  0.8897713779658329  0.6557037547015785  1.0000
  C   C500      1.0  0.7672705937204539  0.8889117373232834  0.6982095074248101  1.0000
  C   C501      1.0  0.7796259227728091  0.9081071959461293  0.7207643504649861  1.0000
  C   C502      1.0  0.7898294466375815  0.9276249192051611  0.699382535374334  1.0000
  C   C503      1.0  0.78534219633472  0.9286736024800647  0.6577699192132064  1.0000
  C   C504      1.0  0.7531115061344419  0.8914526548965661  0.515776930073917  1.0000
  C   C505      1.0  0.7531055031713164  0.8776618225140657  0.48463036489406447  1.0000
  C   C506      1.0  0.7642816354020635  0.8663033395447418  0.48997031518439055  1.0000
  C   C507      1.0  0.772966560669445  0.867327605191511  0.5294318559635495  1.0000
  C   C508      1.0  0.7730176550075107  0.8811328304264668  0.5598928444865756  1.0000
  C   C509      1.0  0.7628754240332976  0.893221952742673  0.554354768832121  1.0000
  C   C510      1.0  0.7670723661872416  0.8526173032387414  0.4531535907739974  1.0000
  C   C511      1.0  0.7042264118436168  0.7922795542841257  0.4459990637360164  1.0000
  C   C512      1.0  0.7061169354999497  0.8110865603730818  0.4306239065102188  1.0000
  C   C513      1.0  0.7256427796760169  0.8305965777141789  0.43508644447368916  1.0000
  C   C514      1.0  0.7433802331054074  0.831099474287179  0.45416308667693894  1.0000
  C   C515      1.0  0.7400369193781899  0.8127444156265344  0.47540652849740583  1.0000
  C   C516      1.0  0.7210390409689734  0.7936710015264882  0.4703181659710527  1.0000
  C   C517      1.0  0.7873275166746425  0.8488614790497968  0.4548643875690136  1.0000
  C   C518      1.0  0.8074160619459092  0.8640143411551635  0.4715352217792719  1.0000
  C   C519      1.0  0.8240874104646856  0.8602379316589596  0.4729126647870238  1.0000
  C   C520      1.0  0.8219744278106732  0.8413077077913377  0.4555751230022372  1.0000
  C   C521      1.0  0.8032886507215722  0.8269608151753963  0.4347405112982264  1.0000
  C   C522      1.0  0.7859618752725315  0.8304725978895361  0.4340643691825491  1.0000
  C   C523      1.0  0.7652783057463737  0.8514704444999401  0.3720668544455122  1.0000
  C   C524      1.0  0.7693761762305102  0.8612629019081747  0.3334355532874641  1.0000
  C   C525      1.0  0.7811602966376918  0.8838189460629667  0.3299604972975876  1.0000
  C   C526      1.0  0.7897155811014396  0.8962063602971233  0.3662803358741341  1.0000
  C   C527      1.0  0.7847031970447477  0.8861804729052757  0.40451224145687514  1.0000
  C   C528      1.0  0.7723238054504115  0.863877272101855  0.40831121669286685  1.0000
  H   H313      1.0  0.7486335763575546  0.9360030921964554  0.6250414959673738  1.0000
  H   H314      1.0  0.7240340026115779  0.869879641986931  0.5894103788947033  1.0000
  H   H315      1.0  0.6876188309259438  0.8613387267686976  0.6064082771981264  1.0000
  H   H316      1.0  0.7128969747200623  0.927148965071389  0.6463352553406353  1.0000
  H   H317      1.0  0.7532193733000333  0.8742348625545245  0.6398694498065302  1.0000
  H   H318      1.0  0.7602348345818895  0.8736926495976792  0.7137890797088356  1.0000
  H   H319      1.0  0.800306531713218  0.9427878805407509  0.7167232220061704  1.0000
  H   H320      1.0  0.7911741559097673  0.9444287778732953  0.6443131186877026  1.0000
  H   H321      1.0  0.7447572853700304  0.9003792416948735  0.5100595981376316  1.0000
  H   H322      1.0  0.7452777777855001  0.8769961441780533  0.45499018145100006  1.0000
  H   H323      1.0  0.7798127603670459  0.8572838368561202  0.5357467088392708  1.0000
  H   H324      1.0  0.7810919725654824  0.8817819834842664  0.5889040585197077  1.0000
  H   H325      1.0  0.6927118836870744  0.8121064983614409  0.41607584405848236  1.0000
  H   H326      1.0  0.7271166554317564  0.8452870838844951  0.4217145548185264  1.0000
  H   H327      1.0  0.7531546339085369  0.8127415935472173  0.49325353550423773  1.0000
  H   H328      1.0  0.7202199655885345  0.7794971827810621  0.48532223124499013  1.0000
  H   H329      1.0  0.8101946537634417  0.8793903374116572  0.48387245675509594  1.0000
  H   H330      1.0  0.8388537427990275  0.8717140810791888  0.488077117260494  1.0000
  H   H331      1.0  0.8019426581083127  0.8126549521141225  0.41908860753205857  1.0000
  H   H332      1.0  0.7722636602107826  0.8186195163195473  0.4163746045282003  1.0000
  H   H333      1.0  0.7550726245425167  0.8338415320558887  0.3732839102537314  1.0000
  H   H334      1.0  0.7623648870030157  0.85167442977749  0.3062706789571887  1.0000
  H   H335      1.0  0.7990708544513095  0.9143266559459403  0.3652865642064409  1.0000
  H   H336      1.0  0.7904393232449679  0.8962202771723989  0.43276554735103867  1.0000
  C   C529      1.0  0.3566952536062463  0.48130129514020187  0.366374681285624  1.0000
  C   C530      1.0  0.3705900962595617  0.5024891145966496  0.3792088020952946  1.0000
  C   C531      1.0  0.390512333204327  0.5083100827617523  0.3948795749437604  1.0000
  C   C532      1.0  0.39755881677054433  0.49320878267905066  0.39790806265258494  1.0000
  C   C533      1.0  0.3840202807858115  0.472507225158526  0.38236937338020494  1.0000
  C   C534      1.0  0.36432651022940604  0.4669924994364375  0.3651073079246102  1.0000
  H   H337      1.0  0.3652697386811849  0.5145502427948774  0.3793125820479335  1.0000
  H   H338      1.0  0.40045454557684756  0.524489501259097  0.4078709381059142  1.0000
  H   H339      1.0  0.3882999084527605  0.459886208043386  0.38211149592213267  1.0000
  H   H340      1.0  0.35426871747984934  0.4501148848336592  0.3550721009891387  1.0000
  C   C535      1.0  0.41440293492430386  0.46488637687937395  0.44813127003568726  1.0000
  C   C536      1.0  0.427860607983628  0.4831771685658747  0.4244411372105833  1.0000
  C   C537      1.0  0.4484753586428137  0.48657767785974687  0.41405056255850003  1.0000
  C   C538      1.0  0.45465593748661365  0.4722314081800028  0.42710167781459735  1.0000
  C   C539      1.0  0.441706848540954  0.455147765086586  0.453046665974309  1.0000
  C   C540      1.0  0.42147187626240545  0.45111976186086483  0.4625252349819902  1.0000
  C   C541      1.0  0.4214324031319325  0.501581593855524  0.41528334260196753  1.0000
  C   C542      1.0  0.42463853763557335  0.5118167934793278  0.4620535079245409  1.0000
  C   C543      1.0  0.4453631361448813  0.524563806967283  0.4794445121091718  1.0000
  C   C544      1.0  0.44793243403315397  0.531672472960126  0.5203338134488773  1.0000
  C   C545      1.0  0.4301593576777987  0.5252044507115579  0.5454328377522297  1.0000
  C   C546      1.0  0.40918172468595926  0.5132863210483081  0.5295890983160325  1.0000
  C   C547      1.0  0.4069327663370769  0.5065615386392045  0.488514251000397  1.0000
  C   C548      1.0  0.4362132652561492  0.5093785132294893  0.3407536123720276  1.0000
  C   C549      1.0  0.4470550680308019  0.5224739438303856  0.30678234557216866  1.0000
  C   C550      1.0  0.45911785203399547  0.5447519319089928  0.3113074659919273  1.0000
  C   C551      1.0  0.4587057690034172  0.5533021496154301  0.3506252872609167  1.0000
  C   C552      1.0  0.4465263807245245  0.5404917662376133  0.383029791260634  1.0000
  C   C553      1.0  0.4354517839797891  0.5178537276673488  0.37844460426222676  1.0000
  C   C554      1.0  0.47522393069821606  0.5594701386137374  0.27450111957679807  1.0000
  C   C555      1.0  0.526407027690973  0.5439638303220727  0.29887840148225314  1.0000
  C   C556      1.0  0.5104581679242299  0.5321005733519123  0.2707911435123118  1.0000
  C   C557      1.0  0.4948800993265101  0.537129319376796  0.2611823778367745  1.0000
  C   C558      1.0  0.49397487484825864  0.5536999247047819  0.28338374006856837  1.0000
  C   C559      1.0  0.5096201983046869  0.5651257141937158  0.3135072865031659  1.0000
  C   C560      1.0  0.5260769077386147  0.5605588047324788  0.32045047981940966  1.0000
  C   C561      1.0  0.48302609822981124  0.585035535336359  0.2765446411896685  1.0000
  C   C562      1.0  0.46989805937333967  0.5932913007032435  0.2884689577478719  1.0000
  C   C563      1.0  0.4780459151534406  0.6150396541772178  0.2959757076554151  1.0000
  C   C564      1.0  0.4995506661641773  0.6294850344549685  0.2872547323019974  1.0000
  C   C565      1.0  0.5129025119424477  0.6221636861191039  0.2697527150165134  1.0000
  C   C566      1.0  0.5041916661591225  0.5998577729697934  0.2651870260698141  1.0000
  C   C567      1.0  0.47818570638534963  0.5589676354482636  0.19393139610327728  1.0000
  C   C568      1.0  0.4690487091924777  0.5526033825136081  0.15479566147846338  1.0000
  C   C569      1.0  0.44733426753459027  0.5426913158745861  0.1488481267381426  1.0000
  C   C570      1.0  0.43427138874123533  0.5387847218806833  0.18241936899328454  1.0000
  C   C571      1.0  0.4427845555121212  0.5445549857918457  0.22205953708486423  1.0000
  C   C572      1.0  0.4652149139403761  0.5541216114403071  0.22904895965273803  1.0000
  H   H341      1.0  0.398409069132851  0.46121422388088035  0.4584872513702242  1.0000
  H   H342      1.0  0.46074712986468136  0.5010543412183479  0.3974111768187384  1.0000
  H   H343      1.0  0.47075862244312666  0.47551316709710556  0.4186546186392052  1.0000
  H   H344      1.0  0.4112228431362651  0.438187699325303  0.4844385292240351  1.0000
  H   H345      1.0  0.45951867703489574  0.5279873702033898  0.4616887056667801  1.0000
  H   H346      1.0  0.4637254752957541  0.5414124398965932  0.5330106919060648  1.0000
  H   H347      1.0  0.39565779718420424  0.5073295929187821  0.5510149412653799  1.0000
  H   H348      1.0  0.3905669592637076  0.4960374152755483  0.47676824726990946  1.0000
  H   H349      1.0  0.4286866969134103  0.4915988227847509  0.3361652805265707  1.0000
  H   H350      1.0  0.4473648156981652  0.5144790059437244  0.2779944156795626  1.0000
  H   H351      1.0  0.46938925405533033  0.570190108577211  0.35742130173523623  1.0000
  H   H352      1.0  0.44691941019159837  0.548540654715419  0.41237750392807987  1.0000
  H   H353      1.0  0.5103725152769396  0.5187742614758337  0.2550348308240952  1.0000
  H   H354      1.0  0.482521157346393  0.5271468531871346  0.23809448322168086  1.0000
  H   H355      1.0  0.510367901144262  0.5790810702771733  0.32900446379449033  1.0000
  H   H356      1.0  0.5392533514311021  0.5713007087015982  0.34083223354826914  1.0000
  H   H357      1.0  0.45305959691153214  0.5823820524662541  0.2998721731499463  1.0000
  H   H358      1.0  0.46809590720969907  0.6209397283303986  0.30956868005816923  1.0000
  H   H359      1.0  0.5300432021594091  0.6325286341443088  0.26249220663295875  1.0000
  H   H360      1.0  0.5149864661802072  0.5948485086544906  0.2524887626526889  1.0000
  H   H361      1.0  0.4958441569473029  0.566106135392046  0.19729355208407093  1.0000
  H   H362      1.0  0.4796408673152499  0.5552600237370338  0.12800470946239273  1.0000
  H   H363      1.0  0.41627729326233454  0.5296528364570687  0.1798607214336795  1.0000
  H   H364      1.0  0.4317513470695319  0.5415833603582185  0.2473922235240066  1.0000
  C   C573      1.0  0.3596668169841818  0.494216695129613  0.8522346813761063  1.0000
  C   C574      1.0  0.37223349822338814  0.5152687021460264  0.8656254401135672  1.0000
  C   C575      1.0  0.3922748838693519  0.5221238999888088  0.8825761657112453  1.0000
  C   C576      1.0  0.4002856998575006  0.5077699842046525  0.8844001770000494  1.0000
  C   C577      1.0  0.38755964786344804  0.4866645347479603  0.8689149501275136  1.0000
  C   C578      1.0  0.36706944704919625  0.47971003184574096  0.8544140603815221  1.0000
  H   H365      1.0  0.3665804569477726  0.5267657675197338  0.864119058376779  1.0000
  H   H366      1.0  0.4016332433253645  0.5389435580609113  0.8923660745768431  1.0000
  H   H367      1.0  0.3945686593582666  0.4767493629436409  0.8664493900405786  1.0000
  H   H368      1.0  0.35682457356864655  0.4635343094652847  0.8427120845097298  1.0000
  C   C579      1.0  0.41925112429596406  0.48015254233061605  0.9306042698536836  1.0000
  C   C580      1.0  0.4327538655100519  0.49918562316033144  0.9079267777785708  1.0000
  C   C581      1.0  0.45372853561047705  0.5037033910154576  0.8975362031264875  1.0000
  C   C582      1.0  0.46097028221650993  0.4898965282195804  0.9098734381023117  1.0000
  C   C583      1.0  0.4475739012015735  0.47122373547803303  0.9321232309786703  1.0000
  C   C584      1.0  0.4268687285550162  0.4665570810293002  0.9413627916105772  1.0000
  C   C585      1.0  0.42497016642148305  0.5168599114179019  0.9019955962429083  1.0000
  C   C586      1.0  0.4274816783538885  0.5267979704882674  0.9489670317766601  1.0000
  C   C587      1.0  0.4480711726536199  0.5380978735566471  0.9671316683355078  1.0000
  C   C588      1.0  0.45137371233699564  0.5462609305217284  0.006852338684979047  1.0000
  C   C589      1.0  0.43387805335772583  0.5431486940967049  0.031067692415847007  1.0000
  C   C590      1.0  0.41342757884461334  0.5318271318306287  0.014477680774765016  1.0000
  C   C591      1.0  0.4101358433614335  0.5231718468726997  0.9742390226677439  1.0000
  C   C592      1.0  0.4369940523034544  0.526376638866901  0.8259531945820809  1.0000
  C   C593      1.0  0.4493011603715418  0.5397205759253239  0.7936461808409031  1.0000
  C   C594      1.0  0.4642591167313181  0.561628387314317  0.8014265324417669  1.0000
  C   C595      1.0  0.46746693970925024  0.5686317082518322  0.8426586221098854  1.0000
  C   C596      1.0  0.45445644276750335  0.5555942168694636  0.8740158920420654  1.0000
  C   C597      1.0  0.4397692667735778  0.5336295938445383  0.8663896379466349  1.0000
  C   C598      1.0  0.47849614685684133  0.5765239743409738  0.7631568886944299  1.0000
  C   C599      1.0  0.5272347354631172  0.556022999207613  0.7599554343978739  1.0000
  C   C600      1.0  0.5091747106427896  0.5459743921326772  0.7354790898103546  1.0000
  C   C601      1.0  0.49415355805819594  0.5525891680029678  0.7353249923049212  1.0000
  C   C602      1.0  0.4969263692795267  0.5701798301202073  0.7595686182107656  1.0000
  C   C603      1.0  0.515397663443177  0.5802754708225565  0.7850450241600776  1.0000
  C   C604      1.0  0.5302889464361407  0.5732120141035757  0.7850355896189285  1.0000
  C   C605      1.0  0.48626888132627305  0.6014691875135598  0.7696918808636275  1.0000
  C   C606      1.0  0.4719857413406046  0.6077040927555378  0.7859601746515292  1.0000
  C   C607      1.0  0.47926419926300395  0.6291701606735531  0.7965677437500391  1.0000
  C   C608      1.0  0.5005327034827314  0.6450986408977554  0.7882150299861368  1.0000
  C   C609      1.0  0.5132676790228364  0.63897867113228  0.7663897914614826  1.0000
  C   C610      1.0  0.5067809419782233  0.6177833691563314  0.7572225623117177  1.0000
  C   C611      1.0  0.47937913147269146  0.5793671139029248  0.6815889907673465  1.0000
  C   C612      1.0  0.4702811112317179  0.5733200183849202  0.6429576896092983  1.0000
  C   C613      1.0  0.44805679221761746  0.5629493692775179  0.639098962279363  1.0000
  C   C614      1.0  0.4351594711175892  0.5589033224056362  0.6742394832122862  1.0000
  C   C615      1.0  0.4443599081449836  0.5638510860631848  0.7134179877569756  1.0000
  C   C616      1.0  0.46675222433482294  0.5734005500869127  0.7184151497188885  1.0000
  H   H369      1.0  0.40342544756710685  0.47633325733237925  0.9421332791377445  1.0000
  H   H370      1.0  0.46635058550041264  0.5193910801771299  0.8856455364317155  1.0000
  H   H371      1.0  0.4774878090713965  0.4947623884300392  0.9033604598624616  1.0000
  H   H372      1.0  0.4167696873730549  0.4519279913926878  0.9601815563557548  1.0000
  H   H373      1.0  0.46219765775446625  0.5418314925466066  0.9491148395879941  1.0000
  H   H374      1.0  0.46772873301037815  0.5536086879558421  0.019300869797890644  1.0000
  H   H375      1.0  0.39910090647301355  0.5285144725728894  0.03325927342781547  1.0000
  H   H376      1.0  0.3934105841349608  0.5130187107169211  0.9635150942283964  1.0000
  H   H377      1.0  0.42513169359711  0.5092623291537846  0.8183741131923955  1.0000
  H   H378      1.0  0.4470587836475249  0.5331226046836871  0.7619995849801543  1.0000
  H   H379      1.0  0.48001565861082574  0.5851353648334862  0.8500647369118396  1.0000
  H   H380      1.0  0.45544389206948094  0.563073785098872  0.9039139529432021  1.0000
  H   H381      1.0  0.5052954724030889  0.5318208553905891  0.7164716342421974  1.0000
  H   H382      1.0  0.4794405072101519  0.543146517944753  0.7168018431824119  1.0000
  H   H383      1.0  0.5176425691920221  0.5933554487001134  0.8061721066397068  1.0000
  H   H384      1.0  0.5447146482240892  0.5819534423588808  0.8037474295644175  1.0000
  H   H385      1.0  0.4555904993139752  0.5954879163906963  0.7956808968820345  1.0000
  H   H386      1.0  0.4688354985487591  0.6337354123559277  0.8124429316567329  1.0000
  H   H387      1.0  0.5300612315009132  0.6514298025915148  0.7598831029157318  1.0000
  H   H388      1.0  0.517267360037697  0.6128551839043489  0.7414228507342158  1.0000
  H   H389      1.0  0.49700167367252696  0.588099891424211  0.683016751327893  1.0000
  H   H390      1.0  0.4812331521715643  0.5770473500025985  0.6170410050730337  1.0000
  H   H391      1.0  0.4174130851387947  0.5519560779663019  0.6708304690104526  1.0000
  H   H392      1.0  0.43488068569423216  0.5601626597946218  0.7420643995323468  1.0000
  C   C617      1.0  0.490661757179066  0.3607173750147767  0.10268145756439935  1.0000
  C   C618      1.0  0.5096959817692701  0.3698694563431315  0.08089961792903033  1.0000
  C   C619      1.0  0.5180353082810313  0.3904476481335373  0.06481529769353399  1.0000
  C   C620      1.0  0.5079319425493685  0.40253455351481654  0.0699168685774957  1.0000
  C   C621      1.0  0.48825666164582177  0.39274967225694946  0.09178896532319  1.0000
  C   C622      1.0  0.48008763740619953  0.3721839069515576  0.10878434774897343  1.0000
  H   H393      1.0  0.5188121753250644  0.36168747698741804  0.0775959561033604  1.0000
  H   H394      1.0  0.5329433645297526  0.3967918898344475  0.04789413365812259  1.0000
  H   H395      1.0  0.47905954438075776  0.40094335809620896  0.09746447079371504  1.0000
  H   H396      1.0  0.46535236782969  0.3657749119452456  0.1276543735010604  1.0000
  C   C623      1.0  0.48239215537484254  0.4211019306124438  0.017170078679392152  1.0000
  C   C624      1.0  0.5021229029483311  0.43460188633384617  0.037578091881116306  1.0000
  C   C625      1.0  0.508377600092085  0.4564912326475613  0.04177017299831576  1.0000
  C   C626      1.0  0.4952331979847389  0.46465595420859734  0.029352398489549857  1.0000
  C   C627      1.0  0.47578707511530033  0.45080067718541095  0.009963441525798181  1.0000
  C   C628      1.0  0.46913389776160047  0.42890693303349375  0.00423717822389161  1.0000
  C   C629      1.0  0.5186926265933502  0.42689938846072384  0.052030550982543035  1.0000
  C   C630      1.0  0.530894275825025  0.4304901194228279  0.007564049020788057  1.0000
  C   C631      1.0  0.5482546126170872  0.45032814829990236  0.995554795970353  1.0000
  C   C632      1.0  0.5558731693793132  0.45368532156062236  0.9552095531702391  1.0000
  C   C633      1.0  0.5476848110502229  0.43667742849839  0.9265474171596195  1.0000
  C   C634      1.0  0.531814693060709  0.41650170641022893  0.938658223147868  1.0000
  C   C635      1.0  0.5225518991734922  0.413524364924407  0.9779751009627424  1.0000
  C   C636      1.0  0.525963879008194  0.4450887187646931  0.12590741096497313  1.0000
  C   C637      1.0  0.5386700907393897  0.4563733320136686  0.1587109960552926  1.0000
  C   C638      1.0  0.5602504085138125  0.4622839009209556  0.1611281254976628  1.0000
  C   C639      1.0  0.5680311279147949  0.45508919662118663  0.12788740666744033  1.0000
  C   C640      1.0  0.5550930461590187  0.4440902089557485  0.09314816821805393  1.0000
  C   C641      1.0  0.5339297494941626  0.43945603880221984  0.09032315211334255  1.0000
  C   C642      1.0  0.5743758979395481  0.4753038982994518  0.20184729061198153  1.0000
  C   C643      1.0  0.5656960927770877  0.5295447306169145  0.2511424536307285  1.0000
  C   C644      1.0  0.577683795874139  0.52214102188265  0.27338721475180777  1.0000
  C   C645      1.0  0.5800680584745098  0.5054651240466933  0.2583947854119541  1.0000
  C   C646      1.0  0.5706033035259114  0.4948649061470882  0.22067391747478315  1.0000
  C   C647      1.0  0.5596751776476323  0.5031997002590467  0.19853702460750727  1.0000
  C   C648      1.0  0.5564866797525715  0.5197395652935825  0.21343856786762574  1.0000
  C   C649      1.0  0.5993657801889658  0.4881000613178658  0.18616676873766178  1.0000
  C   C650      1.0  0.6118136236030173  0.47856133161930237  0.19176208060842043  1.0000
  C   C651      1.0  0.6340265419773912  0.48927331057624235  0.18230238068303709  1.0000
  C   C652      1.0  0.6436605413436736  0.5094278469932765  0.16451292437721401  1.0000
  C   C653      1.0  0.6315179869932156  0.5190722076268853  0.15753325083519415  1.0000
  C   C654      1.0  0.6094786624707268  0.5086438530184353  0.16835372607896623  1.0000
  C   C655      1.0  0.5822104821514893  0.46114892616698283  0.2713606753130056  1.0000
  C   C656      1.0  0.5761983939236536  0.4506667978016148  0.3090743101019623  1.0000
  C   C657      1.0  0.5548330882476121  0.43704177262405564  0.3180792651439645  1.0000
  C   C658      1.0  0.5391465436473368  0.4324343003621341  0.288616765559206  1.0000
  C   C659      1.0  0.5454584842510065  0.4424417363848843  0.24965462649153344  1.0000
  C   C660      1.0  0.5672906503307836  0.4583042870702794  0.2405578419156811  1.0000
  H   H397      1.0  0.4767514982652804  0.4040430809686813  0.01238931364296646  1.0000
  H   H398      1.0  0.5237574931254977  0.4673547128030289  0.05548768134423648  1.0000
  H   H399      1.0  0.5012449554601484  0.4818138912216288  0.03331934000646401  1.0000
  H   H400      1.0  0.45312200017664495  0.41732046856723065  0.9914570602646434  1.0000
  H   H401      1.0  0.5551411167589337  0.4633731249020054  0.01724527197234957  1.0000
  H   H402      1.0  0.567361049286955  0.4701879032558077  0.9462624633139508  1.0000
  H   H403      1.0  0.5246999636339106  0.40301391099653233  0.9167858119174688  1.0000
  H   H404      1.0  0.5083343548897156  0.39787658601451986  0.9860982408920195  1.0000
  H   H405      1.0  0.5088272332322478  0.4408850053437455  0.12658952829004483  1.0000
  H   H406      1.0  0.5311881978528572  0.4604251041172679  0.18491543409660127  1.0000
  H   H407      1.0  0.5841193349423439  0.45709292603291046  0.1284097657623892  1.0000
  H   H408      1.0  0.5615179676992216  0.43862375366072326  0.0681872027001816  1.0000
  H   H409      1.0  0.5842015766383372  0.5285791174211503  0.304043812761323  1.0000
  H   H410      1.0  0.5897391450642954  0.5007185817730748  0.2768578679558148  1.0000
  H   H411      1.0  0.5545236134897601  0.49792906186355734  0.1671313240307626  1.0000
  H   H412      1.0  0.5479017813307073  0.5253260699626922  0.19411033790040302  1.0000
  H   H413      1.0  0.6032367816565005  0.4613021220179623  0.20040097545384195  1.0000
  H   H414      1.0  0.6431087133849028  0.480530011285846  0.1869051788249224  1.0000
  H   H415      1.0  0.6387166440618952  0.5352451524459378  0.14486958073561518  1.0000
  H   H416      1.0  0.601740165211279  0.5178320356761806  0.16201906066683205  1.0000
  H   H417      1.0  0.5991648502103277  0.47352783763081224  0.2699046111290121  1.0000
  H   H418      1.0  0.5881921632149772  0.45431248074264846  0.3328537565832766  1.0000
  H   H419      1.0  0.5223997358105357  0.4210621368257524  0.2937494704289593  1.0000
  H   H420      1.0  0.5319423524180626  0.4371565856831405  0.22859390028465193  1.0000
  C   C661      1.0  0.5098366529895085  0.3630342095025654  0.609603441800583  1.0000
  C   C662      1.0  0.5293270730310351  0.3763441180101183  0.5888222924964165  1.0000
  C   C663      1.0  0.5343890019597691  0.39689826223038754  0.5769033221781975  1.0000
  C   C664      1.0  0.5199398185323931  0.40458997901282095  0.5843691890740951  1.0000
  C   C665      1.0  0.5006995671139055  0.3906022589947281  0.6049459233200336  1.0000
  C   C666      1.0  0.49567876495641894  0.3701337129100164  0.6164812222981939  1.0000
  H   H421      1.0  0.5406739961208511  0.3708346510282717  0.5842371054980093  1.0000
  H   H422      1.0  0.5496254798830975  0.40685619658942385  0.5623301009500637  1.0000
  H   H423      1.0  0.4890486978270872  0.3954506978615174  0.6117576620296015  1.0000
  H   H424      1.0  0.4802894817956481  0.35942154450324076  0.6321519951466597  1.0000
  C   C667      1.0  0.48595184895640864  0.41679119115785074  0.5443195618966494  1.0000
  C   C668      1.0  0.5045247591416113  0.4319044093489067  0.5654214855998815  1.0000
  C   C669      1.0  0.5069911700357349  0.45221511979446777  0.5730100015307159  1.0000
  C   C670      1.0  0.4926883029026101  0.45757378531932136  0.5575153401170313  1.0000
  C   C671      1.0  0.4747387303249657  0.4428929964617079  0.5343315276669229  1.0000
  C   C672      1.0  0.47062849870929885  0.42187137303852207  0.5298281066918069  1.0000
  C   C673      1.0  0.5250352459414116  0.42827005963177045  0.5684216696852591  1.0000
  C   C674      1.0  0.5329168845352669  0.43289564755938886  0.520318089213629  1.0000
  C   C675      1.0  0.5435451077274757  0.4537513366550341  0.5040277814963798  1.0000
  C   C676      1.0  0.5467348237328442  0.45738837615796835  0.4614496972910058  1.0000
  C   C677      1.0  0.5376375179486246  0.4395173979837986  0.4341461352058403  1.0000
  C   C678      1.0  0.5263096885144002  0.41900575195531886  0.45061884405196984  1.0000
  C   C679      1.0  0.5248239523076791  0.41549117286577847  0.4931183070811022  1.0000
  C   C680      1.0  0.5351330880536175  0.4417241443764369  0.6441590211822692  1.0000
  C   C681      1.0  0.549732941309108  0.4547873336806313  0.6748370041517221  1.0000
  C   C682      1.0  0.5717099022503701  0.4691002683001045  0.6661352123653073  1.0000
  C   C683      1.0  0.5783662361706643  0.46980156556223274  0.6254566157779292  1.0000
  C   C684      1.0  0.5640445048454916  0.4570713743231748  0.5951025520545916  1.0000
  C   C685      1.0  0.542139704173522  0.4431670718979611  0.6031219120312297  1.0000
  C   C686      1.0  0.58727144956263  0.48553802963467624  0.7013417750862735  1.0000
  C   C687      1.0  0.5600205914149388  0.5290863777650158  0.7138268178734316  1.0000
  C   C688      1.0  0.5512680745854425  0.5095402236983114  0.734991638517657  1.0000
  C   C689      1.0  0.5608478185142011  0.49709287135273017  0.73254494751302  1.0000
  C   C690      1.0  0.5782915443178496  0.5023720905053997  0.7053137169099967  1.0000
  C   C691      1.0  0.5859877941407219  0.5212565060043867  0.682133049306938  1.0000
  C   C692      1.0  0.5771949712567312  0.5344929598577174  0.6859446039311282  1.0000
  C   C693      1.0  0.6123440704724641  0.4951606718924549  0.6924921754885246  1.0000
  C   C694      1.0  0.6200604506865575  0.48109848055776533  0.6819537930251072  1.0000
  C   C695      1.0  0.6420761404063724  0.48926483838703866  0.6752426894211284  1.0000
  C   C696      1.0  0.6570045243880325  0.5110452131272174  0.6813657066268204  1.0000
  C   C697      1.0  0.6496587156829  0.5247294936595212  0.6947438859760826  1.0000
  C   C698      1.0  0.6278713593910716  0.5171850003423885  0.700973827981463  1.0000
  C   C699      1.0  0.5937523371814247  0.4874701847905934  0.7813246701003274  1.0000
  C   C700      1.0  0.590797490077381  0.4788089649044976  0.8202673111162919  1.0000
  C   C701      1.0  0.5816215264713748  0.4569902671965024  0.8258840079469884  1.0000
  C   C702      1.0  0.5746053059478856  0.4432127352718012  0.7913881806592458  1.0000
  C   C703      1.0  0.5767491159796391  0.4518232532530672  0.7513071050113035  1.0000
  C   C704      1.0  0.5859458678237345  0.47402517645569736  0.7452752883700517  1.0000
  H   H425      1.0  0.48325718384375804  0.4004776491892262  0.5370392409766818  1.0000
  H   H426      1.0  0.5218370921076139  0.4647623964351759  0.5886304568263871  1.0000
  H   H427      1.0  0.4963863797645641  0.4740934911144286  0.5613897916822147  1.0000
  H   H428      1.0  0.4564696629180791  0.40986206500470507  0.5124213782719277  1.0000
  H   H429      1.0  0.548365005480551  0.4675022853088562  0.5252554990815984  1.0000
  H   H430      1.0  0.5544852102759191  0.47380691280437953  0.4505748161932746  1.0000
  H   H431      1.0  0.51935556979058  0.4045292573839854  0.43136609041393903  1.0000
  H   H432      1.0  0.5147854211868326  0.3987449643820735  0.5032447145810138  1.0000
  H   H433      1.0  0.5183621681111246  0.4313615707741822  0.6533891472730271  1.0000
  H   H434      1.0  0.5429855495880677  0.45314690355893505  0.7063232128129382  1.0000
  H   H435      1.0  0.5954733968283067  0.47998238801237053  0.6155943754301891  1.0000
  H   H436      1.0  0.5706128142760281  0.45939580350539805  0.5642673267326554  1.0000
  H   H437      1.0  0.5377601583712341  0.5040873932074164  0.7570118575593904  1.0000
  H   H438      1.0  0.5529442430457413  0.4820949843389013  0.7499642553210978  1.0000
  H   H439      1.0  0.5993222393527564  0.5257336648271929  0.6621412566122366  1.0000
  H   H440      1.0  0.5842995894211653  0.5495004667216215  0.6667453126929417  1.0000
  H   H441      1.0  0.6084194250554532  0.4642640034113285  0.6755540292790451  1.0000
  H   H442      1.0  0.6482795470165149  0.47886925639716077  0.6661100535889101  1.0000
  H   H443      1.0  0.6608723586038678  0.5414786225674648  0.7044677530536375  1.0000
  H   H444      1.0  0.6240526218526438  0.5291863425029856  0.7138897148144249  1.0000
  H   H445      1.0  0.601832597305841  0.505026373335008  0.7798465919869861  1.0000
  H   H446      1.0  0.596286271852332  0.48980916452516876  0.8468695723093829  1.0000
  H   H447      1.0  0.567457351434361  0.4260870647614187  0.7963947771623077  1.0000
  H   H448      1.0  0.5711229679558237  0.44122396242500916  0.7247520165239575  1.0000
  C   C705      1.0  0.8377183049405124  0.5226268003475206  0.19632934197864457  1.0000
  C   C706      1.0  0.8182048335110501  0.5157051852343241  0.2172686770894091  1.0000
  C   C707      1.0  0.8127255441895676  0.5302971117906548  0.23342029705176823  1.0000
  C   C708      1.0  0.8270575191716801  0.5523299661363327  0.2300392719886766  1.0000
  C   C709      1.0  0.8468458126344832  0.5595702717065856  0.2095685190883117  1.0000
  C   C710      1.0  0.8520096991274472  0.5443564089161174  0.1944436916876672  1.0000
  H   H449      1.0  0.8061297565816985  0.49835342662708915  0.21815992674328333  1.0000
  H   H450      1.0  0.7973381463156008  0.5239940818823127  0.24931058022430042  1.0000
  H   H451      1.0  0.8582485210613435  0.577039659050835  0.20348921525661004  1.0000
  H   H452      1.0  0.8675562369402465  0.5513253440108259  0.17802821905784147  1.0000
  C   C711      1.0  0.8572820491482115  0.5958801586946727  0.28197201822797513  1.0000
  C   C712      1.0  0.8400109539564774  0.5936081351669521  0.25747491764992797  1.0000
  C   C713      1.0  0.8390780935534483  0.6124899676955373  0.24994206551187254  1.0000
  C   C714      1.0  0.8547297966330996  0.6324301729880905  0.26409513517417144  1.0000
  C   C715      1.0  0.8725468302341675  0.6345616559641909  0.2852168714138164  1.0000
  C   C716      1.0  0.8737125657019067  0.6163184073373023  0.29467720030860967  1.0000
  C   C717      1.0  0.8201205802480853  0.5697252194217826  0.24489175563482032  1.0000
  C   C718      1.0  0.8072903484630136  0.5643695929680144  0.28883784830679726  1.0000
  C   C719      1.0  0.7930523034551964  0.5722364755810836  0.29863310341237953  1.0000
  C   C720      1.0  0.7847396856590463  0.5700319762649158  0.3387786484248399  1.0000
  C   C721      1.0  0.7901157646985352  0.5605782391479245  0.3700289935573312  1.0000
  C   C722      1.0  0.8038931981897749  0.5526736449448486  0.36077370869017594  1.0000
  C   C723      1.0  0.8126074726488968  0.5550464167802667  0.32112347708803735  1.0000
  C   C724      1.0  0.8171163481288372  0.5801300218727414  0.17050197109859036  1.0000
  C   C725      1.0  0.8057449383886554  0.5803328372326074  0.13568348250355244  1.0000
  C   C726      1.0  0.7832789046151079  0.567204936340227  0.13321886587073237  1.0000
  C   C727      1.0  0.7724493927900592  0.5548216394140444  0.1685254347278778  1.0000
  C   C728      1.0  0.7834195907267808  0.5548637773346756  0.20319800241981134  1.0000
  C   C729      1.0  0.8062253161901337  0.5682541521396278  0.20535159367941988  1.0000
  C   C730      1.0  0.7706587804132866  0.5671788691918315  0.09102759785246683  1.0000
  C   C731      1.0  0.7949716942846581  0.6362279053640822  0.06415110599664538  1.0000
  C   C732      1.0  0.793715635873336  0.6225962217916484  0.032029009261987686  1.0000
  C   C733      1.0  0.786377872335707  0.6009356196308192  0.03972665138544539  1.0000
  C   C734      1.0  0.7801158025381142  0.592299926235996  0.07958507186227162  1.0000
  C   C735      1.0  0.7813352128480416  0.6063892914728226  0.11158672095492725  1.0000
  C   C736      1.0  0.7888661087740334  0.6278994517529206  0.10447810868387125  1.0000
  C   C737      1.0  0.7447550330168956  0.5546471429839952  0.09852208285651637  1.0000
  C   C738      1.0  0.7330689349822972  0.5321522011693365  0.10276919879708492  1.0000
  C   C739      1.0  0.7112682616596487  0.5207949887994907  0.10912304777622203  1.0000
  C   C740      1.0  0.6996536448674939  0.5313621984304885  0.10793775492320443  1.0000
  C   C741      1.0  0.7101083557528376  0.553443927890755  0.09935137902351224  1.0000
  C   C742      1.0  0.7321930120589526  0.5649188750235752  0.09640622976150376  1.0000
  C   C743      1.0  0.7631614801372455  0.5501827156383444  0.01624348094467974  1.0000
  C   C744      1.0  0.7701088425449104  0.5461196936838949  0.9790474938066771  1.0000
  C   C745      1.0  0.7882851308912036  0.543650097642267  0.9792141707003092  1.0000
  C   C746      1.0  0.7982761518412378  0.5447492633123685  0.01649120054678161  1.0000
  C   C747      1.0  0.7918956395180969  0.5502024446272062  0.05279978057089036  1.0000
  C   C748      1.0  0.7748375287942317  0.5546426639222118  0.05359008063447042  1.0000
  H   H453      1.0  0.8587511011744825  0.581984438792909  0.28956147761292444  1.0000
  H   H454      1.0  0.8254334646876885  0.6111773911991304  0.23259351676241208  1.0000
  H   H455      1.0  0.8532115784603904  0.6465788339997108  0.2574343491229873  1.0000
  H   H456      1.0  0.8869309635611666  0.6180340079237331  0.31338149262117937  1.0000
  H   H457      1.0  0.7879372494924417  0.5799822373924803  0.27530588593680655  1.0000
  H   H458      1.0  0.7750697525005952  0.5776066031416799  0.3447727269014957  1.0000
  H   H459      1.0  0.8091729711851617  0.5460681777611496  0.38471857412630245  1.0000
  H   H460      1.0  0.8252753913272791  0.5510176787143337  0.3172207218994068  1.0000
  H   H461      1.0  0.8349210624064193  0.5899404655625424  0.17010163206916837  1.0000
  H   H462      1.0  0.8144941045330975  0.5904478240951375  0.10856106360844743  1.0000
  H   H463      1.0  0.7551501502353636  0.5448379300250279  0.16954184929432853  1.0000
  H   H464      1.0  0.774930790789594  0.5447959278779078  0.23021538342345768  1.0000
  H   H465      1.0  0.7980585229075517  0.6283950951361486  0.00039786042683265244  1.0000
  H   H466      1.0  0.7863520605340878  0.5914523088314081  0.012154896743884657  1.0000
  H   H467      1.0  0.7767084513310263  0.6009615913681582  0.1429443053718121  1.0000
  H   H468      1.0  0.7876680021101903  0.6372894054560824  0.12972682770678765  1.0000
  H   H469      1.0  0.7402177423252616  0.5215555618776144  0.1033890481505733  1.0000
  H   H470      1.0  0.7035304295652338  0.5032722206069926  0.11484132316662246  1.0000
  H   H471      1.0  0.7002680305963639  0.5609454520872265  0.09696318217399891  1.0000
  H   H472      1.0  0.7395235832091547  0.5818613549127934  0.08798275693898408  1.0000
  H   H473      1.0  0.7491370243725407  0.552669026718732  0.01391871566015809  1.0000
  H   H474      1.0  0.7618641498495542  0.5451839000694292  0.9504765583604977  1.0000
  H   H475      1.0  0.8122405328216263  0.5425262865818338  0.01823445216335026  1.0000
  H   H476      1.0  0.8018170447047007  0.5517313046415699  0.07997377495760985  1.0000
  C   C749      1.0  0.8543744484940429  0.5409965809545871  0.6846772305701145  1.0000
  C   C750      1.0  0.8354361273102866  0.5329782742372243  0.709367424757011  1.0000
  C   C751      1.0  0.8306033356482942  0.5477791903701087  0.7276641448919445  1.0000
  C   C752      1.0  0.8443826223841784  0.5702886073635672  0.7244721251365376  1.0000
  C   C753      1.0  0.8621523998839236  0.577317125844025  0.6980271062959298  1.0000
  C   C754      1.0  0.8673386095641049  0.5629296911372373  0.6795983025849104  1.0000
  H   H477      1.0  0.8241423179891034  0.5158492821264591  0.713785934861786  1.0000
  H   H478      1.0  0.8160220779428314  0.5405636569559434  0.7465049235664696  1.0000
  H   H479      1.0  0.8727070720069772  0.5943715459967094  0.6927028802408519  1.0000
  H   H480      1.0  0.8817066782324722  0.5684163539618582  0.6619620003304058  1.0000
  C   C755      1.0  0.87903147468779  0.613815182713506  0.7721605857976123  1.0000
  C   C756      1.0  0.8597441654042315  0.6113924968841596  0.7578766904980474  1.0000
  C   C757      1.0  0.857867613886675  0.6295352874136867  0.7555998212340921  1.0000
  C   C758      1.0  0.8734180476788389  0.6493747104988967  0.7722580760561518  1.0000
  C   C759      1.0  0.8924236839568995  0.6517605856192479  0.7891081665482408  1.0000
  C   C760      1.0  0.895150918865758  0.6338406358586155  0.7863784393091341  1.0000
  C   C761      1.0  0.8393340903470472  0.5874215253228922  0.7471024445059053  1.0000
  C   C762      1.0  0.8312409922459013  0.5797120740342823  0.7950802310955489  1.0000
  C   C763      1.0  0.8165700829335387  0.5843747161612947  0.8158267870821693  1.0000
  C   C764      1.0  0.8112628856269166  0.5795684409785612  0.8573922305375521  1.0000
  C   C765      1.0  0.8215350216178392  0.5707855608958047  0.8807144162578454  1.0000
  C   C766      1.0  0.835818982197846  0.5661078727320489  0.8609962252564647  1.0000
  C   C767      1.0  0.8403273460344598  0.5702383147816585  0.8193458709307411  1.0000
  C   C768      1.0  0.8319614630903489  0.5997942679737076  0.6750162604335529  1.0000
  C   C769      1.0  0.8184290161578869  0.599277813098702  0.6449326535564861  1.0000
  C   C770      1.0  0.7959753908630998  0.5889427852526058  0.6517884201247492  1.0000
  C   C771      1.0  0.7877855199993085  0.5783809379914292  0.6902247407657183  1.0000
  C   C772      1.0  0.8012564049089917  0.577068677253545  0.7186384338594145  1.0000
  C   C773      1.0  0.823712752872486  0.5884895775491401  0.7128173219704902  1.0000
  C   C774      1.0  0.7811968429186407  0.5909213070053408  0.6161258545815821  1.0000
  C   C775      1.0  0.7969848449492051  0.6575404561818042  0.6500618990944848  1.0000
  C   C776      1.0  0.8084599419179983  0.6540856029802051  0.6192392531607475  1.0000
  C   C777      1.0  0.8031737111857371  0.633333802384486  0.6078580516880207  1.0000
  C   C778      1.0  0.7859759981751866  0.6149639477206943  0.6267931757740356  1.0000
  C   C779      1.0  0.7751117602434059  0.6187157717816942  0.6596379583607056  1.0000
  C   C780      1.0  0.780489100242  0.6395389932238631  0.6702549620003645  1.0000
  C   C781      1.0  0.7559518046703708  0.5726679788270038  0.6169340802733452  1.0000
  C   C782      1.0  0.7481368341018025  0.550511111669085  0.6249880335675296  1.0000
  C   C783      1.0  0.7259942907671304  0.5353043214976336  0.6271674125729453  1.0000
  C   C784      1.0  0.711129886274666  0.5418379830991491  0.6209720638851112  1.0000
  C   C785      1.0  0.7182659752505498  0.5627938286302105  0.60823543333398  1.0000
  C   C786      1.0  0.740003457688202  0.5775466027102101  0.6063139317866365  1.0000
  C   C787      1.0  0.7819252461847837  0.5977219646356726  0.5364417200372461  1.0000
  C   C788      1.0  0.7851136346097255  0.5946221833359217  0.4953825969568589  1.0000
  C   C789      1.0  0.7938576191269647  0.5816632175120857  0.484514005553227  1.0000
  C   C790      1.0  0.7983644285591185  0.5711914571580659  0.5167140944947163  1.0000
  C   C791      1.0  0.7947781220325487  0.5745666856636434  0.5579933568685798  1.0000
  C   C792      1.0  0.7868677461241691  0.5878395918768103  0.5688147755664668  1.0000
  H   H481      1.0  0.8814924655859713  0.599689987015017  0.7733115998177885  1.0000
  H   H482      1.0  0.8431917101224887  0.6278651957114922  0.740787591630184  1.0000
  H   H483      1.0  0.8714524589284618  0.6632529193646636  0.7682609754560314  1.0000
  H   H484      1.0  0.9100039098950674  0.6350559165670365  0.7988886408726896  1.0000
  H   H485      1.0  0.8092632117914279  0.5927321239075876  0.7998666883051345  1.0000
  H   H486      1.0  0.7998346386587638  0.5827032780083247  0.8735881928433114  1.0000
  H   H487      1.0  0.8446845469276413  0.560139907903047  0.8790728060979219  1.0000
  H   H488      1.0  0.8524528253200497  0.5671151824324571  0.8055211233004269  1.0000
  H   H489      1.0  0.8488934074652639  0.6083307066141178  0.6684403852527095  1.0000
  H   H490      1.0  0.8261342218247305  0.6078714392323911  0.6149371023968098  1.0000
  H   H491      1.0  0.7706906814492629  0.5697839424134995  0.696218819242374  1.0000
  H   H492      1.0  0.7945860459340532  0.5678722648340335  0.7466401519896051  1.0000
  H   H493      1.0  0.8218929599686745  0.6679454346722757  0.601983477399252  1.0000
  H   H494      1.0  0.812363394513436  0.6320291736071668  0.5818690356696139  1.0000
  H   H495      1.0  0.7620746840187025  0.6047233845561094  0.6757332855608758  1.0000
  H   H496      1.0  0.771761318442697  0.6415679475892079  0.6955552565148954  1.0000
  H   H497      1.0  0.7594720879459614  0.5449429339456716  0.6307368139743118  1.0000
  H   H498      1.0  0.7208541202663049  0.5189692440667777  0.6334885551427659  1.0000
  H   H499      1.0  0.706698409008443  0.567823909153721  0.6008041597556287  1.0000
  H   H500      1.0  0.7442944589818189  0.5940111501880578  0.5966529616500749  1.0000
  H   H501      1.0  0.7740903775913419  0.6069264455199599  0.5437817930511571  1.0000
  H   H502      1.0  0.7815670555978957  0.6032961263153902  0.47172076775520194  1.0000
  H   H503      1.0  0.8054683997745669  0.5615305802436475  0.5088016593177667  1.0000
  H   H504      1.0  0.7984256725737655  0.5661461310408032  0.5815985788233429  1.0000
  C   C793      1.0  0.97473328665572  0.7769563750986189  0.4760543669896362  1.0000
  C   C794      1.0  0.9712849494402964  0.7900111694263976  0.4490212617507416  1.0000
  C   C795      1.0  0.9519587677830186  0.7813643322224811  0.42735641042562  1.0000
  C   C796      1.0  0.9362322188183319  0.7595605265028881  0.4307497003922053  1.0000
  C   C797      1.0  0.938612980191862  0.7479283815303347  0.4627422294284169  1.0000
  C   C798      1.0  0.9579802869703429  0.756381797235289  0.4854102869623807  1.0000
  H   H505      1.0  0.9836591528369535  0.8067497339167695  0.4436467181428692  1.0000
  H   H506      1.0  0.9504399628901415  0.7915851757606409  0.404634890491812  1.0000
  H   H507      1.0  0.9257744264168491  0.7309251353736689  0.46765762536703864  1.0000
  H   H508      1.0  0.9598848446581499  0.7453064189752656  0.505625363797608  1.0000
  C   C799      1.0  0.9204899996475487  0.7175507064798843  0.3809038746550625  1.0000
  C   C800      1.0  0.9060904658923421  0.7248900298592614  0.3881275883281361  1.0000
  C   C801      1.0  0.8842639818717354  0.7107350143973545  0.38115860726608514  1.0000
  C   C802      1.0  0.8770921017671651  0.689973302295288  0.36689043620176853  1.0000
  C   C803      1.0  0.8909268253569005  0.6824480299902843  0.3621354274626796  1.0000
  C   C804      1.0  0.9128553246436456  0.6959734788836311  0.36861066753793365  1.0000
  C   C805      1.0  0.9144658708150675  0.7493558126787484  0.4037448987767576  1.0000
  C   C806      1.0  0.9162669332306731  0.7599177862853261  0.35907549128335847  1.0000
  C   C807      1.0  0.9002352716976018  0.7629145160686959  0.3419297851686012  1.0000
  C   C808      1.0  0.9013624768382105  0.7694869598299884  0.30132886630334976  1.0000
  C   C809      1.0  0.9190102422754156  0.7742440386939449  0.27741104655185034  1.0000
  C   C810      1.0  0.9360848429446155  0.7720816585105695  0.2928748884644483  1.0000
  C   C811      1.0  0.9339530963879726  0.7642380426618924  0.3328537565832766  1.0000
  C   C812      1.0  0.886946743357578  0.7356227495757466  0.46636509322962755  1.0000
  C   C813      1.0  0.8761934464823642  0.7394927929279952  0.49822239384270367  1.0000
  C   C814      1.0  0.8773870368166994  0.7594130339939548  0.5031283552401764  1.0000
  C   C815      1.0  0.8900255472969799  0.7756335576417173  0.47453540586464943  1.0000
  C   C816      1.0  0.8995898842982302  0.7714973623966245  0.4405647680342004  1.0000
  C   C817      1.0  0.8989062427275127  0.7515845488294047  0.4371085811266219  1.0000
  C   C818      1.0  0.8685850927303633  0.7653321247867011  0.5461813113500493  1.0000
  C   C819      1.0  0.8124344120930855  0.7104270271597856  0.6081190739931426  1.0000
  C   C820      1.0  0.825026162044477  0.7295344077495687  0.6290511759556929  1.0000
  C   C821      1.0  0.8410873818811898  0.747436582088483  0.6090310796375445  1.0000
  C   C822      1.0  0.8470829453148441  0.7455053152749921  0.5687330095431755  1.0000
  C   C823      1.0  0.8328405612030305  0.7263538030670766  0.5466719074897965  1.0000
  C   C824      1.0  0.8160713717105518  0.7087396887372516  0.5661762488918004  1.0000
  C   C825      1.0  0.8613110698513666  0.7829568651856361  0.5332371208936405  1.0000
  C   C826      1.0  0.8751656657503086  0.8054329118538612  0.5355234246987448  1.0000
  C   C827      1.0  0.8683678336684708  0.8200335507904707  0.5267524462772375  1.0000
  C   C828      1.0  0.847982486769912  0.8122268938997816  0.5117169325328034  1.0000
  C   C829      1.0  0.8345720061438252  0.7902457373764382  0.5046001436594183  1.0000
  C   C830      1.0  0.8408953933068098  0.7758244122483625  0.514864924429515  1.0000
  C   C831      1.0  0.8899342774961885  0.7883899432568655  0.6133206510132836  1.0000
  C   C832      1.0  0.9043611543631324  0.7933277250146727  0.6455930714369151  1.0000
  C   C833      1.0  0.9157771264389003  0.7830314362755749  0.6494140606022544  1.0000
  C   C834      1.0  0.9145614610535647  0.7685852388732599  0.6184750553276795  1.0000
  C   C835      1.0  0.9003618816390944  0.7636925025558164  0.5859384677518764  1.0000
  C   C836      1.0  0.8875917155061428  0.7735716366865846  0.5815388267293993  1.0000
  H   H509      1.0  0.9381104445282746  0.7281901489879997  0.38152026467679623  1.0000
  H   H510      1.0  0.8730948905601255  0.7166364350416206  0.384378930644939  1.0000
  H   H511      1.0  0.8604703944451365  0.6797884537647017  0.3610819037010428  1.0000
  H   H512      1.0  0.9237782400832322  0.6897496659658896  0.3619184330162529  1.0000
  H   H513      1.0  0.8857304472400287  0.7589203303257186  0.36035229918552125  1.0000
  H   H514      1.0  0.8881941001340738  0.7702064757275281  0.2869786147310371  1.0000
  H   H515      1.0  0.9491192680428586  0.7741697478175424  0.2737501301013388  1.0000
  H   H516      1.0  0.946492621201905  0.7612199982940507  0.3442758410676491  1.0000
  H   H517      1.0  0.8868861095599833  0.7199300721214095  0.4656732268787019  1.0000
  H   H518      1.0  0.8685757680592704  0.7271415881480298  0.5213275851165705  1.0000
  H   H519      1.0  0.8934686822859855  0.7925038891209953  0.476894041151896  1.0000
  H   H520      1.0  0.9099090669069004  0.7844583564652339  0.41961379698935214  1.0000
  H   H521      1.0  0.8221340927192125  0.7315491772637828  0.662528072799345  1.0000
  H   H522      1.0  0.8504013211553572  0.7617638851483841  0.6293090534137652  1.0000
  H   H523      1.0  0.8348628377903358  0.7246552317821062  0.5133648323868263  1.0000
  H   H524      1.0  0.8061611102720483  0.6935855014387566  0.5490431221652418  1.0000
  H   H525      1.0  0.8918599921598939  0.8118974470301673  0.5440176565798819  1.0000
  H   H526      1.0  0.8792819262983462  0.8371371106097505  0.5311520872997146  1.0000
  H   H527      1.0  0.8177916712103634  0.7835789010057184  0.49401144364320626  1.0000
  H   H528      1.0  0.8294405755180461  0.7589222907119235  0.5094054699513018  1.0000
  H   H529      1.0  0.880279875175281  0.7965170471974982  0.6146006037624959  1.0000
  H   H530      1.0  0.9052198475147808  0.8048048765438344  0.6696668756020777  1.0000
  H   H531      1.0  0.9235900989366757  0.7601726916342602  0.6220476015760956  1.0000
  H   H532      1.0  0.8999007841174025  0.7513561341097855  0.5657139563755001  1.0000
  C   C837      1.0  0.0008205633562673866  0.8123328262450514  0.9407086634242476  1.0000
  C   C838      1.0  0.9873424627912265  0.8193715051976751  0.9252265813987616  1.0000
  C   C839      1.0  0.966938648724101  0.8045050786899745  0.9114678755564902  1.0000
  C   C840      1.0  0.9593890018679164  0.782297970319353  0.9134082461861317  1.0000
  C   C841      1.0  0.9724293379538952  0.7754046964755492  0.9328213870236952  1.0000
  C   C842      1.0  0.9934327386111103  0.7904310661144791  0.9447403573419143  1.0000
  H   H533      1.0  0.9933799937138071  0.8367553149271256  0.9218207120439776  1.0000
  H   H534      1.0  0.9570654926670491  0.8102397699678467  0.8976116794556794  1.0000
  H   H535      1.0  0.9661898682068037  0.7581421719046029  0.9374506018807978  1.0000
  H   H536      1.0  0.0031383622493476146  0.7844877213029855  0.9588512860537477  1.0000
  C   C843      1.0  0.9445309549470358  0.7361614961267248  0.8700125017478456  1.0000
  C   C844      1.0  0.9301966535417612  0.7410056058332553  0.8918628990488973  1.0000
  C   C845      1.0  0.9102959035681438  0.7243256730612563  0.902854139487466  1.0000
  C   C846      1.0  0.9042351835623479  0.7032526684354409  0.8924101024355384  1.0000
  C   C847      1.0  0.9176752509789498  0.698489641979357  0.870883624380602  1.0000
  C   C848      1.0  0.9383768720182206  0.7147868000026831  0.8604647461050718  1.0000
  C   C849      1.0  0.935595501458756  0.7658760495142511  0.898564568111727  1.0000
  C   C850      1.0  0.930933144444456  0.7699831535273765  0.8510553637324831  1.0000
  C   C851      1.0  0.909809088486051  0.7607794464732471  0.8354254738956629  1.0000
  C   C852      1.0  0.9059262106019978  0.7618332256981957  0.7927373200435508  1.0000
  C   C853      1.0  0.9233070325453271  0.7699986046262552  0.7651412871827666  1.0000
  C   C854      1.0  0.9441581358888224  0.7796512441520991  0.7798811853045325  1.0000
  C   C855      1.0  0.9479350982537821  0.7790755223553193  0.8221384951108408  1.0000
  C   C856      1.0  0.9239359946158406  0.7615291699211372  0.9771291371063833  1.0000
  C   C857      1.0  0.9130988955518735  0.7636578656978661  0.011193422655391489  1.0000
  C   C858      1.0  0.8977325720906116  0.769492320113863  0.005318911263563851  1.0000
  C   C859      1.0  0.8950093103641205  0.7750818920119864  0.9651567043883201  1.0000
  C   C860      1.0  0.907966882164831  0.7759309988456976  0.9321012170493227  1.0000
  C   C861      1.0  0.9222600990099836  0.7683269394374478  0.9369537160469511  1.0000
  C   C862      1.0  0.8814270858170897  0.7676288544108675  0.0417437562830986  1.0000
  C   C863      1.0  0.8384524690285688  0.6964875863696577  0.03551192736948837  1.0000
  C   C864      1.0  0.8550322642173123  0.7054903813391663  0.06493951915199564  1.0000
  C   C865      1.0  0.8682194095260355  0.7278334730061766  0.06706732266579696  1.0000
  C   C866      1.0  0.8651575562853954  0.7417187766553774  0.04100723310406776  1.0000
  C   C867      1.0  0.848396276748894  0.7320099102371365  0.011788490614128535  1.0000
  C   C868      1.0  0.8352757736035219  0.7098624690980195  0.009435075772984467  1.0000
  C   C869      1.0  0.8700101796873574  0.7819702727057035  0.03670130852367054  1.0000
  C   C870      1.0  0.8808368952642897  0.8030148470498414  0.020107931896245407  1.0000
  C   C871      1.0  0.869841745962924  0.8141969737351865  0.014305909228912478  1.0000
  C   C872      1.0  0.8490030805968583  0.8059801871470171  0.029674934002963196  1.0000
  C   C873      1.0  0.8388626602891919  0.7861381931425304  0.04921213905663594  1.0000
  C   C874      1.0  0.8490422645979911  0.7741897829047197  0.05076695143798884  1.0000
  C   C875      1.0  0.878685449504394  0.7693599977964017  0.12179395102401523  1.0000
  C   C876      1.0  0.8862040858323043  0.7775234051721793  0.16084697617142302  1.0000
  C   C877      1.0  0.9077811714238883  0.7914222385539852  0.16689797637967768  1.0000
  C   C878      1.0  0.9215664820680051  0.7990868102942613  0.1335085062840062  1.0000
  C   C879      1.0  0.9138767247351449  0.7918637272125261  0.09322112866960608  1.0000
  C   C880      1.0  0.8920155880494306  0.7764846508189535  0.08665720390755154  1.0000
  H   H537      1.0  0.9606463966254377  0.7486624083795984  0.8620403144769525  1.0000
  H   H538      1.0  0.8978223775894777  0.7270123595331365  0.9167889567645184  1.0000
  H   H539      1.0  0.8881812365896016  0.691030570858087  0.9023478191124705  1.0000
  H   H540      1.0  0.9491269227121083  0.710491993040671  0.8442058868583192  1.0000
  H   H541      1.0  0.8958600887899658  0.7521713031407249  0.855791503389274  1.0000
  H   H542      1.0  0.8895766871250177  0.7537848277265361  0.7818215559341739  1.0000
  H   H543      1.0  0.9577113744433838  0.786117227302959  0.7580653813210272  1.0000
  H   H544      1.0  0.9648456026396302  0.7862689274336622  0.8326705878801589  1.0000
  H   H545      1.0  0.9341971956614838  0.754499506160817  0.9832018367592806  1.0000
  H   H546      1.0  0.9142578991429935  0.757169113963726  0.04104465678395874  1.0000
  H   H547      1.0  0.8819814805957111  0.7781053994208879  0.9556403972160428  1.0000
  H   H548      1.0  0.9032505934335143  0.7791021025349212  0.9021717076776894  1.0000
  H   H549      1.0  0.857748056426504  0.6958312788864653  0.08789061292042899  1.0000
  H   H550      1.0  0.8806415550143335  0.7339784183445813  0.09075745549090086  1.0000
  H   H551      1.0  0.8459256135476474  0.7423380762206875  0.9909067120309526  1.0000
  H   H552      1.0  0.8215739320237645  0.7029655266948527  0.9885449318966565  1.0000
  H   H553      1.0  0.8979160664939042  0.8098420969091257  0.010189493131727888  1.0000
  H   H554      1.0  0.8779374182935673  0.8294034316727193  0.9988856548964228  1.0000
  H   H555      1.0  0.8221910682920327  0.779418817798003  0.0590995381807733  1.0000
  H   H556      1.0  0.8398485936828296  0.758134131437932  0.063261428766296  1.0000
  H   H557      1.0  0.8613977399179713  0.758235504589906  0.11859815745214869  1.0000
  H   H558      1.0  0.8755854388883684  0.7716319777077005  0.18850401906497058  1.0000
  H   H559      1.0  0.9388403953789062  0.8105515194143719  0.13897550839513864  1.0000
  H   H560      1.0  0.9249812626355955  0.7971511871164283  0.0665820727660341  1.0000
  C   C881      1.0  0.8604414335589444  0.49953808669358085  0.1104231275465523  1.0000
  C   C882      1.0  0.850672231585872  0.4803662290820357  0.0869710596431078  1.0000
  C   C883      1.0  0.8631998355008769  0.47335730503964135  0.06661037638948107  1.0000
  C   C884      1.0  0.8860272478084773  0.4857479481220128  0.06867622641640404  1.0000
  C   C885      1.0  0.8953916173848112  0.5044505339551014  0.09391205156641683  1.0000
  C   C886      1.0  0.8827850233079244  0.5113841513234966  0.11311071383519346  1.0000
  H   H561      1.0  0.8332950713521943  0.4703369125461629  0.08406113266805555  1.0000
  H   H562      1.0  0.8545860236547338  0.4576349238535191  0.05099117903262974  1.0000
  H   H563      1.0  0.9126888264721478  0.513604684960144  0.09853151739766534  1.0000
  H   H564      1.0  0.8909714387577825  0.5261961683509092  0.13128541390460013  1.0000
  C   C887      1.0  0.9299772320336954  0.5176229538488855  0.01946160293059887  1.0000
  C   C888      1.0  0.9254525930394664  0.4978193304950191  0.03697679712522092  1.0000
  C   C889      1.0  0.9432473528822368  0.49459960749607984  0.04081508294933341  1.0000
  C   C890      1.0  0.9640211469644717  0.5105904528099074  0.028539078145566273  1.0000
  C   C891      1.0  0.9678776369467033  0.530038662782904  0.011440167354907972  1.0000
  C   C892      1.0  0.9503070978557183  0.5332643236351958  0.006820041105779018  1.0000
  C   C893      1.0  0.90160107441594  0.47849573855918087  0.04904326077006909  1.0000
  C   C894      1.0  0.8943061939858944  0.4678315104608713  0.0030395319485485572  1.0000
  C   C895      1.0  0.8983001291097186  0.4514296487823245  0.9900576033275438  1.0000
  C   C896      1.0  0.8931588986643514  0.443161085771301  0.9502721433022697  1.0000
  C   C897      1.0  0.8853664728283084  0.45176140919527125  0.921471634021465  1.0000
  C   C898      1.0  0.881696474356555  0.4682088654295413  0.9332396516813003  1.0000
  C   C899      1.0  0.8852955521002859  0.4756256719032556  0.9737704404573443  1.0000
  C   C900      1.0  0.9133930322046413  0.4683548087686567  0.11790346073887835  1.0000
  C   C901      1.0  0.9120962318474198  0.4539853801167498  0.14798423725360044  1.0000
  C   C902      1.0  0.8953175586587455  0.43246616376911645  0.14850974119559895  1.0000
  C   C903      1.0  0.8796967719813155  0.42624473454479156  0.11696975564983371  1.0000
  C   C904      1.0  0.8816717240337482  0.4400559207243727  0.08388533571797945  1.0000
  C   C905      1.0  0.8995610590791074  0.4616220273622035  0.08430989006968383  1.0000
  C   C906      1.0  0.8928874740656128  0.41664552695997453  0.1876357267945589  1.0000
  C   C907      1.0  0.9544205068380212  0.42505898162677846  0.2317437790895934  1.0000
  C   C908      1.0  0.9367571996830898  0.4159767740481999  0.2584988798492979  1.0000
  C   C909      1.0  0.9174554811290752  0.41411220779769836  0.24546380331315384  1.0000
  C   C910      1.0  0.9154858647456736  0.4203091994454153  0.205136486141223  1.0000
  C   C911      1.0  0.9327401559544533  0.4270108065504059  0.17763762905427344  1.0000
  C   C912      1.0  0.9526878967718083  0.4309620705894687  0.19103530645524355  1.0000
  C   C913      1.0  0.879627563275545  0.3918557019232354  0.17025352818166706  1.0000
  C   C914      1.0  0.8572556484185119  0.3809216257269208  0.16785967060746432  1.0000
  C   C915      1.0  0.8449990481761951  0.35885900533973725  0.15743293021430993  1.0000
  C   C916      1.0  0.8555334017303249  0.348184870320553  0.14414343555184822  1.0000
  C   C917      1.0  0.8777455452505816  0.35948355249052627  0.14076807121344598  1.0000
  C   C918      1.0  0.8894297274664512  0.3808169604857656  0.1530320312530129  1.0000
  C   C919      1.0  0.8661953048038157  0.4051211399445501  0.25322497134701477  1.0000
  C   C920      1.0  0.8595487070836494  0.4099868631807842  0.28946304390027  1.0000
  C   C921      1.0  0.8676530403222475  0.43135939320353395  0.30110841252516846  1.0000
  C   C922      1.0  0.8798817238949649  0.44762434877301704  0.27260792165290154  1.0000
  C   C923      1.0  0.8869680195719813  0.4433206943679452  0.2361431056273656  1.0000
  C   C924      1.0  0.8810368547144828  0.42198326900435923  0.22590159672543628  1.0000
  H   H565      1.0  0.9167421963380546  0.5212357474421093  0.015789396479179037  1.0000
  H   H566      1.0  0.9410252606142357  0.47922085613149673  0.053196031299147774  1.0000
  H   H567      1.0  0.977249313370046  0.507387166218706  0.03183402874490864  1.0000
  H   H568      1.0  0.9525468536353655  0.5484851859353124  0.9950641998306058  1.0000
  H   H569      1.0  0.9068812419300974  0.4456580962944956  0.008393565327077404  1.0000
  H   H570      1.0  0.8944642333863411  0.42924220238463684  0.9412212734933425  1.0000
  H   H571      1.0  0.8762454118604452  0.47491644290198926  0.9101061567839865  1.0000
  H   H572      1.0  0.8823958236710515  0.4884479943250587  0.9826231849021428  1.0000
  H   H573      1.0  0.9271435150872306  0.48524567186303597  0.12114737047060473  1.0000
  H   H574      1.0  0.923316684321534  0.459654249903592  0.1733672412455374  1.0000
  H   H575      1.0  0.8659336673070405  0.4094105746937581  0.11581654023672265  1.0000
  H   H576      1.0  0.8689143944790119  0.4342707040450082  0.06014299843185115  1.0000
  H   H577      1.0  0.9385810337867301  0.4103075884118909  0.289500153095456  1.0000
  H   H578      1.0  0.9049565972596688  0.40800932888899943  0.2689756233105419  1.0000
  H   H579      1.0  0.9309447758365458  0.42816007634939734  0.1437232839860134  1.0000
  H   H580      1.0  0.9663569811418198  0.43681197471277683  0.17000697217297356  1.0000
  H   H581      1.0  0.849061756345576  0.3894891901492375  0.1772778585517921  1.0000
  H   H582      1.0  0.8274242990111687  0.3509682435989896  0.15813894837695905  1.0000
  H   H583      1.0  0.8866427022673172  0.3520003272935012  0.12956706947666483  1.0000
  H   H584      1.0  0.9068920559317943  0.3881730747456242  0.15013499815086429  1.0000
  H   H585      1.0  0.8614654910023445  0.38841635368087263  0.24869827850373122  1.0000
  H   H586      1.0  0.8497753600622462  0.3970982449291514  0.31169491114844566  1.0000
  H   H587      1.0  0.8860537311323402  0.4641799385906913  0.2827233221881394  1.0000
  H   H588      1.0  0.8998814340519309  0.4583596331831606  0.22220231314091887  1.0000
  C   C925      1.0  0.8680874275294497  0.5093158239679435  0.5979329143992874  1.0000
  C   C926      1.0  0.8570319620138083  0.488791243007727  0.5796487736525524  1.0000
  C   C927      1.0  0.8686415898349462  0.47944434188413415  0.5642830509679039  1.0000
  C   C928      1.0  0.8911710643588342  0.4907546142451951  0.5632389617474161  1.0000
  C   C929      1.0  0.9015618054634417  0.5112136365771422  0.5814790746354557  1.0000
  C   C930      1.0  0.8906299410627676  0.5202174886588284  0.6004330678037687  1.0000
  H   H589      1.0  0.8396623929138902  0.4800830206735542  0.5782273027861052  1.0000
  H   H590      1.0  0.860963266195302  0.46284520522600714  0.5515306961815244  1.0000
  H   H591      1.0  0.9186557116053087  0.5204374539415488  0.5818690356696139  1.0000
  H   H592      1.0  0.9001137886124423  0.5360682141123311  0.6151729659255344  1.0000
  C   C931      1.0  0.9356881658303896  0.5144739657393225  0.511915057896932  1.0000
  C   C932      1.0  0.9295075353617208  0.49507060908563516  0.5326773381188006  1.0000
  C   C933      1.0  0.9452451687226403  0.4893835228270085  0.5397438094393913  1.0000
  C   C934      1.0  0.9663744944307373  0.5031985515502888  0.5279726469325062  1.0000
  C   C935      1.0  0.972470542298419  0.5228365920560778  0.5091884755048751  1.0000
  C   C936      1.0  0.9570670752007069  0.528347478763411  0.5011439567518396  1.0000
  C   C937      1.0  0.9043676736228059  0.47923238929966605  0.544555425425374  1.0000
  C   C938      1.0  0.8955417072237248  0.4670613292026534  0.5003954831540202  1.0000
  C   C939      1.0  0.8993963070753124  0.4509978721566446  0.48619964357184586  1.0000
  C   C940      1.0  0.8953320325600594  0.4437411407225599  0.44558708877251063  1.0000
  C   C941      1.0  0.8877925314763986  0.4529817151203498  0.41701300847928163  1.0000
  C   C942      1.0  0.8837442871852463  0.46898801305867865  0.43067107921596376  1.0000
  C   C943      1.0  0.8872830266207706  0.4757461427218289  0.4719660658250756  1.0000
  C   C944      1.0  0.9124290491422079  0.4723751873021226  0.619921684970524  1.0000
  C   C945      1.0  0.9089346312651972  0.45994131237286084  0.654703693339786  1.0000
  C   C946      1.0  0.8947776739803118  0.4374927278058471  0.6528671026627832  1.0000
  C   C947      1.0  0.8825147623869758  0.42876999372378466  0.617280013448808  1.0000
  C   C948      1.0  0.8852335249109609  0.44167089088881917  0.5833534034770542  1.0000
  C   C949      1.0  0.9012240968435065  0.46330424035538886  0.582126913127686  1.0000
  C   C950      1.0  0.8945090745385029  0.4226476590702469  0.6939230808961209  1.0000
  C   C951      1.0  0.9613325624268974  0.44512257301302827  0.7391837196348564  1.0000
  C   C952      1.0  0.9448310201562313  0.43827995254753804  0.7677074823752909  1.0000
  C   C953      1.0  0.9239077244931273  0.4314226934671063  0.7546029047193493  1.0000
  C   C954      1.0  0.9188200596312388  0.432284087114091  0.7121380350077632  1.0000
  C   C955      1.0  0.9359688941494276  0.43859800724091486  0.6834979129264912  1.0000
  C   C956      1.0  0.9566587389011609  0.44551880229231766  0.69765286949702  1.0000
  C   C957      1.0  0.884808069874893  0.39699357294899035  0.6820544281306964  1.0000
  C   C958      1.0  0.8628447843101906  0.38297744812468126  0.6750319846688011  1.0000
  C   C959      1.0  0.853775493565975  0.3609173809464281  0.6683491846882693  1.0000
  C   C960      1.0  0.8672158938172678  0.3522916121304264  0.667729649819486  1.0000
  C   C961      1.0  0.88904598105127  0.3655957848772558  0.6740507923893065  1.0000
  C   C962      1.0  0.8976841386616758  0.3874411830500802  0.6817430882727799  1.0000
  C   C963      1.0  0.8728894956998126  0.40914214477159366  0.7628801421540596  1.0000
  C   C964      1.0  0.8649825584190202  0.4120816945992314  0.7994012509417846  1.0000
  C   C965      1.0  0.865223356337351  0.4312791982923798  0.8078325858819284  1.0000
  C   C966      1.0  0.8711280619948323  0.44635954241283166  0.7769501878542475  1.0000
  C   C967      1.0  0.8771215373610604  0.4422496382606949  0.737884897803346  1.0000
  C   C968      1.0  0.8801406722732287  0.42466803254883995  0.7310668693996788  1.0000
  H   H593      1.0  0.9237711159309899  0.5189443819241876  0.5032667285103616  1.0000
  H   H594      1.0  0.9414105805608921  0.4742672116994628  0.5552258914648773  1.0000
  H   H595      1.0  0.9776040604226544  0.4974187371496997  0.5340767950559003  1.0000
  H   H596      1.0  0.9613094070331878  0.5433381250711302  0.485193292515954  1.0000
  H   H597      1.0  0.9065694244675555  0.4449722326436061  0.5075531550390509  1.0000
  H   H598      1.0  0.8986614859383567  0.43119695526790525  0.4361808512469716  1.0000
  H   H599      1.0  0.8794673826054369  0.4772207248281379  0.40773256483572906  1.0000
  H   H600      1.0  0.8858311193117637  0.4900916120483081  0.48089114175201636  1.0000
  H   H601      1.0  0.9247280408359142  0.4894526176388102  0.622053891270195  1.0000
  H   H602      1.0  0.9188238029182225  0.4671505826412888  0.6821833668597326  1.0000
  H   H603      1.0  0.8715577627846975  0.4114912538337996  0.6133992721895251  1.0000
  H   H604      1.0  0.874375267077323  0.4339755373934247  0.5563580364027555  1.0000
  H   H605      1.0  0.9473956943356207  0.43689458835216305  0.8008636048198775  1.0000
  H   H606      1.0  0.9123534261076193  0.42645175744458763  0.7792427813534512  1.0000
  H   H607      1.0  0.9332052247018143  0.4383516390101763  0.6500524645533359  1.0000
  H   H608      1.0  0.9690461555860911  0.44984755072280835  0.6743935807177198  1.0000
  H   H609      1.0  0.8518551733705415  0.38904117791912  0.6766673051346254  1.0000
  H   H610      1.0  0.8361561476694236  0.3499839630527735  0.6639023709600473  1.0000
  H   H611      1.0  0.9000693470203169  0.3591806574309798  0.6719500345601324  1.0000
  H   H612      1.0  0.9148301141817703  0.39591172022222665  0.687557910467605  1.0000
  H   H613      1.0  0.873679210848553  0.39423579064045167  0.7603013675733369  1.0000
  H   H614      1.0  0.860762380713556  0.4002741115752347  0.8238335676706088  1.0000
  H   H615      1.0  0.8721561570466898  0.4620193773120677  0.7838751410576033  1.0000
  H   H616      1.0  0.8814898890589064  0.4551698575765177  0.7152640129751272  1.0000
  C   C969      1.0  0.12906429775706904  0.6256355144189099  0.3401655259737408  1.0000
  C   C970      1.0  0.13798066101719345  0.6137196771778769  0.3547953544487685  1.0000
  C   C971      1.0  0.124720703448968  0.5935682798624999  0.37253858150296154  1.0000
  C   C972      1.0  0.10235341130045657  0.5851737126190991  0.37553562074128943  1.0000
  C   C973      1.0  0.09396126781238939  0.5972123922155225  0.3592484578710899  1.0000
  C   C974      1.0  0.10714160095419087  0.6169556072878878  0.3412033255001293  1.0000
  H   H617      1.0  0.15549353213614892  0.6204774750394514  0.3531757582181925  1.0000
  H   H618      1.0  0.13216891398084052  0.5846959935112275  0.38293230100209447  1.0000
  H   H619      1.0  0.0768034344523886  0.5906930342485162  0.35959124619950306  1.0000
  H   H620      1.0  0.10007643060117075  0.6265099323521097  0.3313473748464885  1.0000
  C   C975      1.0  0.06147829781103485  0.5721899794477702  0.43534746677881114  1.0000
  C   C976      1.0  0.0648529368930463  0.5572017942374797  0.4133524065134751  1.0000
  C   C977      1.0  0.04682334459291534  0.5364710156387144  0.40816340888153274  1.0000
  C   C978      1.0  0.026112177969107787  0.5316650394256885  0.41958863821295483  1.0000
  C   C979      1.0  0.02283344179415773  0.5473403798494859  0.4381998430528546  1.0000
  C   C980      1.0  0.04105619283011774  0.5676667238909693  0.4472475680147322  1.0000
  C   C981      1.0  0.0877515113739525  0.5621925515467332  0.3984804248156234  1.0000
  C   C982      1.0  0.09650706265601136  0.5582096315225367  0.4425177180520405  1.0000
  C   C983      1.0  0.08837095603863737  0.5375513395052385  0.4591916971093485  1.0000
  C   C984      1.0  0.09583120697882688  0.535005815133065  0.497354416056997  1.0000
  C   C985      1.0  0.11027119355866072  0.5531311570011013  0.5209470586235614  1.0000
  C   C986      1.0  0.11768998360797364  0.5736672237876199  0.5055750462448134  1.0000
  C   C987      1.0  0.11102261396572344  0.5758713546841703  0.46701293172185787  1.0000
  C   C988      1.0  0.07508934727278115  0.545541228476847  0.32358274748087307  1.0000
  C   C989      1.0  0.07424931857864916  0.5326125499651266  0.29075274567533643  1.0000
  C   C990      1.0  0.08293671030906066  0.519068495594833  0.2926239296698853  1.0000
  C   C991      1.0  0.09347534034581688  0.5196239018720659  0.32944788722849266  1.0000
  C   C992      1.0  0.09582240447291084  0.533735804650302  0.3618932742398556  1.0000
  C   C993      1.0  0.08639984923474638  0.5468835019674845  0.3604214858206138  1.0000
  C   C994      1.0  0.07977670874375621  0.5026122113827225  0.2549502344384593  1.0000
  C   C995      1.0  0.010011492146926605  0.4572706642857441  0.27601127513004575  1.0000
  C   C996      1.0  0.016461819655359266  0.47452040109920846  0.24866022585443032  1.0000
  C   C997      1.0  0.03832872619645995  0.4881129740974236  0.24088867982530557  1.0000
  C   C998      1.0  0.054471978069716855  0.48547564551797007  0.2601505535197804  1.0000
  C   C999      1.0  0.047610449641629436  0.4689306173713999  0.2896706038055477  1.0000
  C   C1000     1.0  0.02551605622409732  0.45416809020432214  0.29617886477482325  1.0000
  C   C1001     1.0  0.09529224066387  0.492137320432552  0.2541017547044605  1.0000
  C   C1002     1.0  0.11740814416410449  0.505376493873462  0.2611446396721786  1.0000
  C   C1003     1.0  0.13049163013428622  0.4964164730940814  0.26375832205515265  1.0000
  C   C1004     1.0  0.12206585416258789  0.4741703907839344  0.2589504798856294  1.0000
  C   C1005     1.0  0.10042968319028003  0.46114277461188696  0.2475299678247818  1.0000
  C   C1006     1.0  0.08745142521976429  0.470236424815219  0.24416875529810306  1.0000
  C   C1007     1.0  0.07616713196374261  0.5005473793892381  0.17433522516742336  1.0000
  C   C1008     1.0  0.08267929982848105  0.5098119906757931  0.13531490642933205  1.0000
  C   C1009     1.0  0.09766791028139905  0.5315653748545446  0.13088098657401362  1.0000
  C   C1010     1.0  0.10721881677129241  0.5441235030616373  0.16626523315328567  1.0000
  C   C1011     1.0  0.10131094389247476  0.5352360963889583  0.2056233084645107  1.0000
  C   C1012     1.0  0.08559512674383252  0.5136043382394362  0.2102581840463026  1.0000
  H   H621      1.0  0.07441476199117111  0.5880996925846619  0.4427032640279706  1.0000
  H   H622      1.0  0.048029736741630275  0.5236914981890185  0.3914170983420826  1.0000
  H   H623      1.0  0.012461901287424306  0.5157125018339545  0.41155984369516774  1.0000
  H   H624      1.0  0.03924274632169779  0.579962843764918  0.4642737699416023  1.0000
  H   H625      1.0  0.07575204102796759  0.52336727797354  0.4420900188532865  1.0000
  H   H626      1.0  0.08908205450585825  0.518919088966593  0.51156283502737  1.0000
  H   H627      1.0  0.1279286743890047  0.5884258743906546  0.5233937496281984  1.0000
  H   H628      1.0  0.11717665850207364  0.5926311946570122  0.45650599772893713  1.0000
  H   H629      1.0  0.06761704717866981  0.5552164279868589  0.3205133767604029  1.0000
  H   H630      1.0  0.06758794106003782  0.5338835756852083  0.26107922685354557  1.0000
  H   H631      1.0  0.10009861835554364  0.5088543369273849  0.33365569258094047  1.0000
  H   H632      1.0  0.10557730464895  0.5342240156467967  0.38840119002145673  1.0000
  H   H633      1.0  0.004782288682866393  0.47770347935292845  0.23203845125814673  1.0000
  H   H634      1.0  0.04205314489250613  0.5017513906294188  0.22057705618565354  1.0000
  H   H635      1.0  0.05974888719836205  0.4672078025179822  0.30782454788442665  1.0000
  H   H636      1.0  0.020750591693285855  0.4404903987885466  0.3176264071688132  1.0000
  H   H637      1.0  0.12433847721943805  0.5229805476952246  0.2655219522806031  1.0000
  H   H638      1.0  0.14707171510685668  0.5066377794232094  0.27144275582100175  1.0000
  H   H639      1.0  0.09322355788498973  0.44399279118464713  0.24063111685193825  1.0000
  H   H640      1.0  0.07036576453749538  0.45903456083855143  0.23566697578404677  1.0000
  H   H641      1.0  0.06395072434255762  0.48284710379422024  0.1763366058298283  1.0000
  H   H642      1.0  0.07410897626645332  0.4994226430189426  0.10838432320425644  1.0000
  H   H643      1.0  0.11965588513984715  0.5611224513791901  0.16441574860337949  1.0000
  H   H644      1.0  0.10815235709352818  0.5458409500331001  0.23240702733236712  1.0000
  C   C1013     1.0  0.13789868294457067  0.6442894364562674  0.8774186165497997  1.0000
  C   C1014     1.0  0.14209840516792296  0.6291565885149153  0.8951209605923471  1.0000
  C   C1015     1.0  0.12505059366901852  0.608606916625835  0.9034642398151005  1.0000
  C   C1016     1.0  0.10374989180061184  0.6030062893032595  0.8973223535271105  1.0000
  C   C1017     1.0  0.10006586384554916  0.6179970586409913  0.8768493992338109  1.0000
  C   C1018     1.0  0.11715613079499712  0.6386440088221078  0.8676318525312515  1.0000
  H   H645      1.0  0.158545311750712  0.6333192351469629  0.9017974708787796  1.0000
  H   H646      1.0  0.12911559649748788  0.5965484771211514  0.9139994774314683  1.0000
  H   H647      1.0  0.08401592798120787  0.6143170327122078  0.867339381755633  1.0000
  H   H648      1.0  0.11346483432873553  0.6497066512488557  0.852674959963059  1.0000
  C   C1019     1.0  0.054915735450712995  0.5894348852329439  0.930739498276819  1.0000
  C   C1020     1.0  0.05952551222804592  0.5748467712224914  0.9096407194206366  1.0000
  C   C1021     1.0  0.041518487688851184  0.5547103910610846  0.8978129496668578  1.0000
  C   C1022     1.0  0.02085376783859679  0.5483565889315424  0.912540268400425  1.0000
  C   C1023     1.0  0.0168714993494014  0.5623504496745899  0.9351926016991404  1.0000
  C   C1024     1.0  0.033941736619731835  0.5835793275929547  0.9429477945236069  1.0000
  C   C1025     1.0  0.0838155240335809  0.5789929058378795  0.9088450731170721  1.0000
  C   C1026     1.0  0.08494191653761149  0.5707267012348246  0.9554800100165101  1.0000
  C   C1027     1.0  0.07247452584658613  0.5489394747464283  0.9657982531864511  1.0000
  C   C1028     1.0  0.07366927589438281  0.5419220166433502  0.0048806768271934505  1.0000
  C   C1029     1.0  0.08599272445562156  0.5567632710038837  0.03553740063059063  1.0000
  C   C1030     1.0  0.09722699206885851  0.5789396260461825  0.026863314946683373  1.0000
  C   C1031     1.0  0.09638855499813503  0.5853284407618197  0.9870385501598683  1.0000
  C   C1032     1.0  0.08160080257362043  0.5676939703206039  0.8305289470393391  1.0000
  C   C1033     1.0  0.08419804940608865  0.5565265313201815  0.7986559221910148  1.0000
  C   C1034     1.0  0.09133074257339859  0.5416452443640579  0.806533764050418  1.0000
  C   C1035     1.0  0.09714799789635886  0.5403663076725019  0.8471431740027036  1.0000
  C   C1036     1.0  0.0963451601521317  0.5531019652680078  0.8776922182431203  1.0000
  C   C1037     1.0  0.08713760692777145  0.5658999475443942  0.8717767609427061  1.0000
  C   C1038     1.0  0.08973080322227026  0.5244237412885822  0.7724027390204362  1.0000
  C   C1039     1.0  0.019231691758115583  0.4805521364958211  0.7835354975762397  1.0000
  C   C1040     1.0  0.027472960347923195  0.4962225984198891  0.7530807987473128  1.0000
  C   C1041     1.0  0.04962120074496277  0.5099568157931965  0.7496403360749826  1.0000
  C   C1042     1.0  0.06396505606988413  0.5074689818872875  0.7748305609427754  1.0000
  C   C1043     1.0  0.055060022001810136  0.4923825100058949  0.806999201413768  1.0000
  C   C1044     1.0  0.032846532802385676  0.47894606012026997  0.811027750484385  1.0000
  C   C1045     1.0  0.10419763930011595  0.5134604105520478  0.7814882021469097  1.0000
  C   C1046     1.0  0.12545668931661544  0.5261987107232002  0.7952689219185287  1.0000
  C   C1047     1.0  0.13718312148179373  0.517011917632113  0.8077948477173325  1.0000
  C   C1048     1.0  0.12786465157619256  0.49485260266279507  0.8081470705868947  1.0000
  C   C1049     1.0  0.10789691406267804  0.4818473515863745  0.7902623254154667  1.0000
  C   C1050     1.0  0.09633490549506743  0.4909069563362836  0.7767363382548704  1.0000
  C   C1051     1.0  0.09073439066703418  0.5191302832686948  0.6913788996329443  1.0000
  C   C1052     1.0  0.09406375709739008  0.5272811475185954  0.6513009688320517  1.0000
  C   C1053     1.0  0.10653822562318503  0.5493975070559166  0.6433822439610027  1.0000
  C   C1054     1.0  0.11634022858829214  0.5633291829981015  0.6768685753458037  1.0000
  C   C1055     1.0  0.11115397833550772  0.5554019068241465  0.7173364671808544  1.0000
  C   C1056     1.0  0.09762775606103248  0.5333387766844307  0.7255633870627702  1.0000
  H   H649      1.0  0.06823541713764027  0.6049194564065272  0.9410074238939655  1.0000
  H   H650      1.0  0.04410370816663527  0.5422686454736196  0.8836265446258325  1.0000
  H   H651      1.0  0.007424145865582597  0.5318033187296124  0.9072286217335458  1.0000
  H   H652      1.0  0.03143356955067453  0.5939710279896794  0.962710013383683  1.0000
  H   H653      1.0  0.06271539697471622  0.5368080350829444  0.941737028409487  1.0000
  H   H654      1.0  0.0652935455072324  0.5245746343155351  0.011293145755336272  1.0000
  H   H655      1.0  0.10631312651490132  0.590930595461291  0.05156825846624272  1.0000
  H   H656      1.0  0.10508401573569745  0.6029279144532037  0.9812583212825896  1.0000
  H   H657      1.0  0.07504816708685681  0.5782038086257165  0.8230253419788456  1.0000
  H   H658      1.0  0.07931620477217075  0.5580342534494503  0.7670973820476564  1.0000
  H   H659      1.0  0.10172422726729943  0.5286247679713345  0.8558103724715721  1.0000
  H   H660      1.0  0.10301045407449701  0.5525973047886855  0.9076468863911509  1.0000
  H   H661      1.0  0.01622244449622341  0.49780948255402885  0.7325889753717152  1.0000
  H   H662      1.0  0.05509506710037502  0.5216695259191658  0.7246388020301697  1.0000
  H   H663      1.0  0.0652670283833677  0.49033289473754055  0.8281325735874966  1.0000
  H   H664      1.0  0.026858263813008584  0.46782315638584593  0.8357776967652251  1.0000
  H   H665      1.0  0.13365169114504205  0.543995649365651  0.7967438551848202  1.0000
  H   H666      1.0  0.15376674027454085  0.5280807331429852  0.8178174752646052  1.0000
  H   H667      1.0  0.10156418759910532  0.46462208608624284  0.7890578489954462  1.0000
  H   H668      1.0  0.08067140362734573  0.48024281878551284  0.7629398942480033  1.0000
  H   H669      1.0  0.08079808978237067  0.5017064215694254  0.6956496019263853  1.0000
  H   H670      1.0  0.08619149740988459  0.516366852540736  0.6244219610985904  1.0000
  H   H671      1.0  0.12745177127561905  0.5804843710112821  0.6730287170981665  1.0000
  H   H672      1.0  0.11902824118963462  0.5669964957307251  0.7435739261161847  1.0000
  C   C1057     1.0  0.6938274820298496  0.1500972158953332  0.21621609678188725  1.0000
  C   C1058     1.0  0.7075789702244952  0.17127262275919666  0.22997008535358401  1.0000
  C   C1059     1.0  0.7284587184857569  0.1773829697390497  0.2415906096867901  1.0000
  C   C1060     1.0  0.7358861364778522  0.16288575625481796  0.24175948797335697  1.0000
  C   C1061     1.0  0.7217813337513719  0.14196706976851184  0.227969962629999  1.0000
  C   C1062     1.0  0.7011632648871828  0.1356944319091863  0.21440277797305213  1.0000
  H   H673      1.0  0.7014104823091387  0.18244885302656041  0.22724696229328167  1.0000
  H   H674      1.0  0.7395069585897593  0.194451787375943  0.24870739856017524  1.0000
  H   H675      1.0  0.7266725523781086  0.12964814515656142  0.22672743356067754  1.0000
  H   H676      1.0  0.6906643366295474  0.12017597437817994  0.2004739359053941  1.0000
  C   C1063     1.0  0.753492919417184  0.13587188447164886  0.29405420610807165  1.0000
  C   C1064     1.0  0.7659650564745762  0.15217344475799854  0.26485587367548474  1.0000
  C   C1065     1.0  0.7855244759878313  0.15386129705154247  0.2532796916856789  1.0000
  C   C1066     1.0  0.7925706189212774  0.14061738351045086  0.26974894120005377  1.0000
  C   C1067     1.0  0.7802033155529079  0.12513510177033946  0.2992551541588026  1.0000
  C   C1068     1.0  0.7604311885436575  0.12259370913903612  0.31066906204084593  1.0000
  C   C1069     1.0  0.7607425085530659  0.17124977657497759  0.25224472252163505  1.0000
  C   C1070     1.0  0.7701609305777766  0.18595577649623007  0.2944951136644342  1.0000
  C   C1071     1.0  0.7925295891879285  0.19865481594664755  0.30256887949503153  1.0000
  C   C1072     1.0  0.8005473533992145  0.21125055427251632  0.3379484088037291  1.0000
  C   C1073     1.0  0.7863541295008114  0.20884657026601472  0.3695635561939813  1.0000
  C   C1074     1.0  0.7646526617593705  0.195738402189867  0.3637109958345603  1.0000
  C   C1075     1.0  0.7565125508163496  0.18438871794272926  0.3270389343884516  1.0000
  C   C1076     1.0  0.7725551468005901  0.17413426452915803  0.17425880538411656  1.0000
  C   C1077     1.0  0.7838098697544769  0.18568912545856597  0.13984380066555033  1.0000
  C   C1078     1.0  0.7968156661346824  0.20836206948803285  0.1406274965503261  1.0000
  C   C1079     1.0  0.7967449545111042  0.21841552912770998  0.17820967673260696  1.0000
  C   C1080     1.0  0.7838439615883729  0.20724529933240204  0.21041731330701546  1.0000
  C   C1081     1.0  0.7726675398902687  0.18473491435017245  0.210989046500644  1.0000
  C   C1082     1.0  0.8116953709428448  0.22141622482432316  0.10195845722768204  1.0000
  C   C1083     1.0  0.8619978991052241  0.20476275253649998  0.12332171772074103  1.0000
  C   C1084     1.0  0.8452022918030491  0.1917832447662789  0.09672731864527426  1.0000
  C   C1085     1.0  0.8291279552302682  0.19694373516574698  0.090849285024751  1.0000
  C   C1086     1.0  0.8306543753001231  0.21593239295740713  0.10802801203352973  1.0000
  C   C1087     1.0  0.8477329335642743  0.2282612226711044  0.1353237120010711  1.0000
  C   C1088     1.0  0.8639137982361028  0.22349270425447354  0.1415552264299764  1.0000
  C   C1089     1.0  0.8188774123141813  0.24646029965885105  0.09961177235922426  1.0000
  C   C1090     1.0  0.8035410960847963  0.2526695314191028  0.10578259124007104  1.0000
  C   C1091     1.0  0.808772760318782  0.27433331902528046  0.10376139804125327  1.0000
  C   C1092     1.0  0.8297449121551045  0.2900453324853559  0.09293777795043154  1.0000
  C   C1093     1.0  0.8449313778113892  0.2841123960510296  0.08442970874227594  1.0000
  C   C1094     1.0  0.8393242882631429  0.2624271699288754  0.08524925588341786  1.0000
  C   C1095     1.0  0.8123801023214602  0.21653971253708684  0.0214404035911872  1.0000
  C   C1096     1.0  0.8025084880805392  0.2090616717324814  0.9832961821707705  1.0000
  C   C1097     1.0  0.7803237116652436  0.19876532334086888  0.9791072459006207  1.0000
  C   C1098     1.0  0.7677488466518783  0.19636124226303348  0.013190369083456369  1.0000
  C   C1099     1.0  0.7774767033049539  0.20424388099967777  0.05130817961523566  1.0000
  C   C1100     1.0  0.7999841357546779  0.21331357916126337  0.057281502101363686  1.0000
  H   H677      1.0  0.7381886191811927  0.13424204884301894  0.30680970574150074  1.0000
  H   H678      1.0  0.7963613306234019  0.16580960401617142  0.22960465412641332  1.0000
  H   H679      1.0  0.8083094028000227  0.1423777680285962  0.26144843189717587  1.0000
  H   H680      1.0  0.7502364099883094  0.11105644978341671  0.33496080410655016  1.0000
  H   H681      1.0  0.8042050031040427  0.19980656049501797  0.277506964386865  1.0000
  H   H682      1.0  0.8174533737918388  0.22099745633908505  0.34391418365693793  1.0000
  H   H683      1.0  0.7536832679625295  0.19331906577589947  0.389970468699238  1.0000
  H   H684      1.0  0.7389775793100721  0.17284537381068216  0.32438468347853683  1.0000
  H   H685      1.0  0.7651301847974534  0.1564021792304063  0.1721253411456259  1.0000
  H   H686      1.0  0.7828970743021584  0.1761202267638449  0.1120886385440533  1.0000
  H   H687      1.0  0.80622281702071  0.2361549605798203  0.18016671505161164  1.0000
  H   H688      1.0  0.7849822862673956  0.2173055002043932  0.23722619095126918  1.0000
  H   H689      1.0  0.844597157376201  0.17825549301793117  0.07974766045473915  1.0000
  H   H690      1.0  0.8165572636741449  0.1865022205431584  0.068546344233253  1.0000
  H   H691      1.0  0.8497278771983721  0.2423858829779302  0.15224676294471232  1.0000
  H   H692      1.0  0.8773652298568421  0.2333701307039901  0.1633804649546307  1.0000
  H   H693      1.0  0.7870834755081976  0.24013662025352125  0.11229305360228134  1.0000
  H   H694      1.0  0.7958396301310023  0.27805325300550826  0.10893247004501251  1.0000
  H   H695      1.0  0.8613288917361229  0.2970904328717322  0.07855450548409737  1.0000
  H   H696      1.0  0.8522858502249705  0.25895820920841156  0.07917907210816025  1.0000
  H   H697      1.0  0.8300488332126066  0.2238364513950052  0.021797658216028803  1.0000
  H   H698      1.0  0.8120568909478508  0.21112481044747347  0.9554674306283114  1.0000
  H   H699      1.0  0.7502072811644583  0.1880755312153283  0.01022166491704593  1.0000
  H   H700      1.0  0.766406983740684  0.20146176837983196  0.07712737389296076  1.0000
  C   C1101     1.0  0.7080102274847767  0.14526561827776652  0.6755666086672437  1.0000
  C   C1102     1.0  0.7203399615268213  0.16629923175220196  0.6897309997789213  1.0000
  C   C1103     1.0  0.7403149760068015  0.17304155946623362  0.707823304855627  1.0000
  C   C1104     1.0  0.7486896513127738  0.15894573844866725  0.7127732941117949  1.0000
  C   C1105     1.0  0.7359620249815817  0.13813276865957022  0.6958603066787126  1.0000
  C   C1106     1.0  0.715767007521757  0.13115818614854902  0.6792051967037026  1.0000
  H   H701      1.0  0.7145141733616012  0.17736897859349346  0.6846709408760152  1.0000
  H   H702      1.0  0.750384761395245  0.18985892522817507  0.719666798844654  1.0000
  H   H703      1.0  0.7416569046640931  0.1263879586821365  0.6954546214093063  1.0000
  H   H704      1.0  0.7055719963913172  0.1140731153387141  0.6706983854343669  1.0000
  C   C1107     1.0  0.7611046882729051  0.13066514819539055  0.7734751318643709  1.0000
  C   C1108     1.0  0.7764574041570023  0.1488154007583089  0.752344904537692  1.0000
  C   C1109     1.0  0.7974854764411489  0.15205576548600042  0.7509139991300957  1.0000
  C   C1110     1.0  0.802375424895267  0.1377257020060457  0.7697327638752731  1.0000
  C   C1111     1.0  0.7866903530116911  0.11972388563596408  0.7910579717190312  1.0000
  C   C1112     1.0  0.76581349475562  0.11613484216973137  0.792344214162343  1.0000
  C   C1113     1.0  0.7708366530038115  0.16685750511160236  0.738397507872441  1.0000
  C   C1114     1.0  0.7712910849616152  0.17716373224079762  0.7825543052967452  1.0000
  C   C1115     1.0  0.7905007809093385  0.19036166877165936  0.8037442847173678  1.0000
  C   C1116     1.0  0.7908640649001609  0.19969974864800602  0.8417120231479372  1.0000
  C   C1117     1.0  0.7717830225432591  0.1952367433849387  0.8603641109994826  1.0000
  C   C1118     1.0  0.7522091229150206  0.1800652964896697  0.8429164995679578  1.0000
  C   C1119     1.0  0.7519627871879719  0.17104576203695748  0.8042254463159662  1.0000
  C   C1120     1.0  0.7920879396791326  0.1753584383927679  0.6675063656789599  1.0000
  C   C1121     1.0  0.8066904781621855  0.18921288593044128  0.638671263080609  1.0000
  C   C1122     1.0  0.8175631776983457  0.21184931162487586  0.643835101936154  1.0000
  C   C1123     1.0  0.8131563207552063  0.2197302392563277  0.6802146926066441  1.0000
  C   C1124     1.0  0.7983636013312775  0.20559640167773152  0.7091661545458325  1.0000
  C   C1125     1.0  0.7879101347055332  0.18318547933222393  0.7044897669829852  1.0000
  C   C1126     1.0  0.8343791172600403  0.22782595129809494  0.6094839376126959  1.0000
  C   C1127     1.0  0.888481431452322  0.21633182424193292  0.6371239983321753  1.0000
  C   C1128     1.0  0.8732448777788239  0.2035394230197463  0.607323427689578  1.0000
  C   C1129     1.0  0.8563686993209563  0.20700876826238868  0.5986908225382558  1.0000
  C   C1130     1.0  0.8543279231409175  0.2235535673460262  0.6181668603168128  1.0000
  C   C1131     1.0  0.8696020784753927  0.23553974507162048  0.6497599937777173  1.0000
  C   C1132     1.0  0.886174736351835  0.23185321645579557  0.6596662619841526  1.0000
  C   C1133     1.0  0.8406018139168637  0.2528435819995953  0.6098959125762016  1.0000
  C   C1134     1.0  0.8248180514753032  0.258528794471385  0.6170127014495868  1.0000
  C   C1135     1.0  0.8301103892527231  0.28013923516567374  0.6180662252112236  1.0000
  C   C1136     1.0  0.8511929364016738  0.2963427363738241  0.6126382192035068  1.0000
  C   C1137     1.0  0.8669697096796869  0.29136449324984853  0.6016312545296899  1.0000
  C   C1138     1.0  0.8612796134810528  0.2696648615773279  0.599137390819308  1.0000
  C   C1139     1.0  0.8383498304354013  0.22532359654179732  0.5291739785054771  1.0000
  C   C1140     1.0  0.8302184383888314  0.21916128131650864  0.48915265495147847  1.0000
  C   C1141     1.0  0.8086267940034516  0.21119610962540084  0.4821616599600798  1.0000
  C   C1142     1.0  0.7944545879127489  0.20824520267652855  0.5152926236282691  1.0000
  C   C1143     1.0  0.8027583631593265  0.2132815442978006  0.5556976185223266  1.0000
  C   C1144     1.0  0.8248339325152119  0.22187471886633744  0.5632075132769194  1.0000
  H   H705      1.0  0.7451735276925175  0.12763796214558693  0.777028809030489  1.0000
  H   H706      1.0  0.8110785206132853  0.16674272793007527  0.7383031624609511  1.0000
  H   H707      1.0  0.8190160476964875  0.1414674914868959  0.7685471565375507  1.0000
  H   H708      1.0  0.753957483784169  0.10269437574409064  0.8092949397600213  1.0000
  H   H709      1.0  0.805116918850755  0.19258356275962019  0.7896396456996337  1.0000
  H   H710      1.0  0.8069021502396403  0.21000894316300403  0.8566594811749808  1.0000
  H   H711      1.0  0.7368960657085322  0.17430625325772398  0.8574079547728003  1.0000
  H   H712      1.0  0.7365309941576775  0.15985041022928873  0.7925171807500745  1.0000
  H   H713      1.0  0.7849358512481991  0.15824101635703133  0.6608958971805704  1.0000
  H   H714      1.0  0.8090865204504383  0.1818713403857094  0.6112702107369039  1.0000
  H   H715      1.0  0.8215245683333151  0.2371253363228493  0.6881648659481897  1.0000
  H   H716      1.0  0.7961728724772222  0.21391980233043706  0.7355545661395464  1.0000
  H   H717      1.0  0.8739755169677732  0.19001616740898072  0.5924828944622231  1.0000
  H   H718      1.0  0.8446844245870472  0.19471746660194844  0.5764976369087911  1.0000
  H   H719      1.0  0.8677675450196954  0.2476819094466753  0.6667201539165444  1.0000
  H   H720      1.0  0.898127290088371  0.2417525812451718  0.6834381608325476  1.0000
  H   H721      1.0  0.8081847014484769  0.24586295065808544  0.6205192059099599  1.0000
  H   H722      1.0  0.8173652255094848  0.2839710096640973  0.6228778411972064  1.0000
  H   H723      1.0  0.8831485252122113  0.3050962291362226  0.5939012204816205  1.0000
  H   H724      1.0  0.8732782281312741  0.26608212627088823  0.5870454539133574  1.0000
  H   H725      1.0  0.855522729932395  0.2331880979470922  0.532432040048927  1.0000
  H   H726      1.0  0.8419423503282851  0.22232709801642322  0.46422659723585735  1.0000
  H   H727      1.0  0.7772967899906075  0.2012838703025644  0.5103929519248958  1.0000
  H   H728      1.0  0.790889630644592  0.20979555458397167  0.5802085564273922  1.0000
  C   C1145     1.0  0.8327815246907782  0.022559721289946596  0.4560405603655872  1.0000
  C   C1146     1.0  0.8508282557006146  0.030799753759882698  0.4313189177081941  1.0000
  C   C1147     1.0  0.8603524692541875  0.0518029160414343  0.41717025083176473  1.0000
  C   C1148     1.0  0.8515829058599953  0.06443928235298202  0.4272337613906832  1.0000
  C   C1149     1.0  0.8341889305383228  0.05645887507869033  0.4545310337817494  1.0000
  C   C1150     1.0  0.8239626909300958  0.03524369555873465  0.4674186169912643  1.0000
  H   H729      1.0  0.8581684320568506  0.02126203952351452  0.41969241816559366  1.0000
  H   H730      1.0  0.8746152041765582  0.0582954264712389  0.39810304316966394  1.0000
  H   H731      1.0  0.8268970846817747  0.0659008513299761  0.46448761954097934  1.0000
  H   H732      1.0  0.8091637343198205  0.028393149008547763  0.4858159722317871  1.0000
  C   C1151     1.0  0.823987708885008  0.08146075113782807  0.3818819220875074  1.0000
  C   C1152     1.0  0.8437759532263566  0.09601802017254177  0.4006660935151385  1.0000
  C   C1153     1.0  0.8490075161079732  0.1176820439535027  0.4032354335547124  1.0000
  C   C1154     1.0  0.8343890327751503  0.12378279908517549  0.3914799952830758  1.0000
  C   C1155     1.0  0.8146727777780013  0.10925292362463374  0.3737493476170814  1.0000
  C   C1156     1.0  0.8095989362738956  0.08802302695212888  0.36877734443156573  1.0000
  C   C1157     1.0  0.8613287262410056  0.08865619238361003  0.41081451494439786  1.0000
  C   C1158     1.0  0.8723082272050978  0.09344953492214442  0.36496578980737543  1.0000
  C   C1159     1.0  0.888046320183678  0.11427633742280667  0.3540059978393033  1.0000
  C   C1160     1.0  0.8966698684888162  0.11972024673210592  0.31460735400113765  1.0000
  C   C1161     1.0  0.8883493853970064  0.10410269453305786  0.2836284091690321  1.0000
  C   C1162     1.0  0.8711975680941069  0.08381407650686677  0.2928201681257842  1.0000
  C   C1163     1.0  0.8633885448302256  0.0781983145608602  0.33264305183094933  1.0000
  C   C1164     1.0  0.8727967981370839  0.1084119815977333  0.4814980972326012  1.0000
  C   C1165     1.0  0.886848698393484  0.11841475303000301  0.5136667377035938  1.0000
  C   C1166     1.0  0.9076855601581967  0.1215620381382119  0.5138900218441198  1.0000
  C   C1167     1.0  0.9128745061186063  0.11293053423641973  0.4791992140392982  1.0000
  C   C1168     1.0  0.8986032248148977  0.10272463399919053  0.4465305428874093  1.0000
  C   C1169     1.0  0.8782732021916335  0.10077670168613925  0.4469267936156667  1.0000
  C   C1170     1.0  0.9248299998979211  0.13546204861047553  0.5510526794299758  1.0000
  C   C1171     1.0  0.9187668369938917  0.19142289058076536  0.5964516914388965  1.0000
  C   C1172     1.0  0.9246983706194163  0.18041685217374376  0.6237363844417642  1.0000
  C   C1173     1.0  0.9267638428119418  0.16376917753659645  0.6098015671647117  1.0000
  C   C1174     1.0  0.9221198007607453  0.1558779814626079  0.5678996250750151  1.0000
  C   C1175     1.0  0.9165032153172813  0.16722903015815815  0.5410206173415539  1.0000
  C   C1176     1.0  0.9144092396301813  0.18469190259183624  0.5549239861481097  1.0000
  C   C1177     1.0  0.949640720971943  0.14523502136623903  0.5343849900667671  1.0000
  C   C1178     1.0  0.9589903446006689  0.13194822693129635  0.5338409315271756  1.0000
  C   C1179     1.0  0.9806792668351451  0.14025522943817867  0.5247208750831557  1.0000
  C   C1180     1.0  0.9932798893793576  0.16162906647996103  0.5133113699869819  1.0000
  C   C1181     1.0  0.9845814522500809  0.17484007840090598  0.5095029602098413  1.0000
  C   C1182     1.0  0.9630587387820065  0.16664374237670743  0.5200224735909607  1.0000
  C   C1183     1.0  0.935291875444068  0.12300963304238732  0.619997161299716  1.0000
  C   C1184     1.0  0.9304678500333724  0.11447286438173926  0.6600121951596154  1.0000
  C   C1185     1.0  0.9092628646177532  0.10088165173238982  0.672138725383112  1.0000
  C   C1186     1.0  0.8932395777400371  0.09619625446411714  0.6439105782653459  1.0000
  C   C1187     1.0  0.8978725597561561  0.10536152199534841  0.604188015181065  1.0000
  C   C1188     1.0  0.919155691506591  0.11982983460460096  0.5914262258535367  1.0000
  H   H733      1.0  0.8199326148912731  0.06486648982504989  0.3748248853080658  1.0000
  H   H734      1.0  0.8649561499434433  0.1298458975300025  0.4144656823690554  1.0000
  H   H735      1.0  0.8388023781305356  0.1403337803605985  0.3939958729228054  1.0000
  H   H736      1.0  0.7950092077913924  0.07656752024406276  0.35225431803264157  1.0000
  H   H737      1.0  0.8942464868686798  0.1269328438947153  0.3781143953220123  1.0000
  H   H738      1.0  0.9091921806802084  0.13621627053427174  0.30856547384932703  1.0000
  H   H739      1.0  0.8635245177257268  0.07176866304231458  0.2676686248767024  1.0000
  H   H740      1.0  0.8489064868741336  0.06252468974098002  0.33802702997997064  1.0000
  H   H741      1.0  0.856641476268821  0.10563084044202208  0.48580024799653876  1.0000
  H   H742      1.0  0.8810693013319318  0.12399969401956973  0.5390456533943662  1.0000
  H   H743      1.0  0.9279741639970702  0.11375950959108547  0.47758276265577193  1.0000
  H   H744      1.0  0.9034469610440585  0.09638550735186895  0.4205541062572011  1.0000
  H   H745      1.0  0.92804132140197  0.18481851258838994  0.657298192155757  1.0000
  H   H746      1.0  0.9331320104589066  0.15723865181833716  0.6320419254999214  1.0000
  H   H747      1.0  0.9135246211670233  0.1623074213019994  0.5081129378138907  1.0000
  H   H748      1.0  0.9098545813129423  0.1937829018102371  0.5329477949650716  1.0000
  H   H749      1.0  0.9493366475817386  0.11488902794016885  0.5426339238780306  1.0000
  H   H750      1.0  0.9875248851717994  0.12936624856606851  0.527044917052856  1.0000
  H   H751      1.0  0.9937786097214902  0.19169719335039567  0.4998325555321307  1.0000
  H   H752      1.0  0.9571163273797025  0.17760707788152671  0.5177864873386511  1.0000
  H   H753      1.0  0.9526740879178073  0.1350904818742774  0.6153962500660605  1.0000
  H   H754      1.0  0.9439430778837269  0.11871220023751579  0.6801455059715517  1.0000
  H   H755      1.0  0.8765112879659562  0.08612799021287124  0.6531501388972528  1.0000
  H   H756      1.0  0.8837240632888982  0.10142013831266798  0.5864762365973687  1.0000
  C   C1189     1.0  0.8371003253739289  0.017022697739788942  0.9554454166989638  1.0000
  C   C1190     1.0  0.8572930071016617  0.028813244358456322  0.9361234764258404  1.0000
  C   C1191     1.0  0.8645064750754913  0.0498027898653211  0.9240724225315357  1.0000
  C   C1192     1.0  0.8520847902057432  0.0597028991924868  0.9298432168676654  1.0000
  C   C1193     1.0  0.8328509229549995  0.04815947617764008  0.9517565111097103  1.0000
  C   C1194     1.0  0.8246870381925652  0.026613684989408137  0.9621282166794956  1.0000
  H   H757      1.0  0.8670324483036406  0.02148150539202627  0.9278934116968749  1.0000
  H   H758      1.0  0.8798231455996931  0.05888554302542007  0.9081217582956499  1.0000
  H   H759      1.0  0.8225004401224174  0.05547324143405584  0.9579392804093457  1.0000
  H   H760      1.0  0.8084053642250573  0.01737770166818996  0.9761259308975412  1.0000
  C   C1195     1.0  0.8230280574962003  0.07471198290088245  0.8861424222655622  1.0000
  C   C1196     1.0  0.842539195168635  0.08976222587625048  0.905134153598471  1.0000
  C   C1197     1.0  0.8465079394452513  0.11091433796403638  0.9097916720790205  1.0000
  C   C1198     1.0  0.8317321862703386  0.11684415027790866  0.8964952587530494  1.0000
  C   C1199     1.0  0.8128781885271211  0.10191150273407136  0.8775538449729351  1.0000
  C   C1200     1.0  0.8080842930958076  0.08072488091717886  0.8742108725591444  1.0000
  C   C1201     1.0  0.8609188059330279  0.08393417285533053  0.914782544346834  1.0000
  C   C1202     1.0  0.8717060652887665  0.08951064719478719  0.8694715880553038  1.0000
  C   C1203     1.0  0.8867873323357053  0.11113090416495554  0.8583136707231029  1.0000
  C   C1204     1.0  0.8951609639350186  0.11634635647893952  0.8188238263204971  1.0000
  C   C1205     1.0  0.8893658775991983  0.10022035623911942  0.7893723337004125  1.0000
  C   C1206     1.0  0.8748371175953992  0.07871472108963475  0.7994861618121255  1.0000
  C   C1207     1.0  0.8658967258117862  0.07347875690024741  0.8386112039569705  1.0000
  C   C1208     1.0  0.8684678396339539  0.10059426523009081  0.9889160238485165  1.0000
  C   C1209     1.0  0.8825966442942814  0.11410034359013281  0.019725329804183525  1.0000
  C   C1210     1.0  0.9048889833599715  0.12278565631827085  0.01692110113847041  1.0000
  C   C1211     1.0  0.9121053221785769  0.11634358465852439  0.9826609230667388  1.0000
  C   C1212     1.0  0.8986887579983875  0.10444688707896171  0.9510111823589403  1.0000
  C   C1213     1.0  0.8765300648651184  0.09715643326379471  0.9526181992013176  1.0000
  C   C1214     1.0  0.920659729141792  0.13875326069649047  0.05411621354587887  1.0000
  C   C1215     1.0  0.9028163490829968  0.1886241094448463  0.08575054450313399  1.0000
  C   C1216     1.0  0.9097852404973731  0.18079629172048683  0.11754494817521688  1.0000
  C   C1217     1.0  0.9150456941997545  0.1649766772871707  0.10795159225022294  1.0000
  C   C1218     1.0  0.9138018447233764  0.1568652122579048  0.06721701738536087  1.0000
  C   C1219     1.0  0.9060595459755503  0.16528879837821958  0.03593836862942253  1.0000
  C   C1220     1.0  0.9008713753911082  0.18053881630925248  0.04541505072887403  1.0000
  C   C1221     1.0  0.945438814106204  0.15149826287121385  0.03702302637685096  1.0000
  C   C1222     1.0  0.958081786344565  0.14115315712891582  0.038251718119153906  1.0000
  C   C1223     1.0  0.979544904004589  0.15177667118462426  0.0284038811709013  1.0000
  C   C1224     1.0  0.9895992945246174  0.17303761293185027  0.015388051098701174  1.0000
  C   C1225     1.0  0.9779677990381616  0.1833087347314151  0.011347362918472445  1.0000
  C   C1226     1.0  0.9559952850656441  0.17244994138696526  0.02094958731214645  1.0000
  C   C1227     1.0  0.9345325347756266  0.13362611597219656  0.12526806355977685  1.0000
  C   C1228     1.0  0.9318299886729589  0.1245445794936237  0.16446921100322373  1.0000
  C   C1229     1.0  0.9127692408856571  0.10513732220970741  0.17434088589211277  1.0000
  C   C1230     1.0  0.8974013698179151  0.09457753088465619  0.14370378593430547  1.0000
  C   C1231     1.0  0.9001822265626412  0.10428884619340152  0.10501336165172372  1.0000
  C   C1232     1.0  0.9184676285933622  0.124382824752876  0.09503035917727665  1.0000
  H   H761      1.0  0.8196141651303128  0.05836868607136325  0.8785256027112808  1.0000
  H   H762      1.0  0.8615480331728885  0.12371891322477666  0.922896249734962  1.0000
  H   H763      1.0  0.8364309068724336  0.13390728464644  0.8986620583702666  1.0000
  H   H764      1.0  0.792598910431627  0.0682333499764504  0.860118812929609  1.0000
  H   H765      1.0  0.8919392649257638  0.12448987376929467  0.8800414189892177  1.0000
  H   H766      1.0  0.9058590781870363  0.1329525585822773  0.809445892418405  1.0000
  H   H767      1.0  0.8692096463870722  0.06600330381725143  0.7762520318092225  1.0000
  H   H768      1.0  0.852819754991795  0.05674284051631983  0.8442247559406172  1.0000
  H   H769      1.0  0.8512888072825147  0.09448620597488304  0.9939006064222308  1.0000
  H   H770      1.0  0.8757309816684928  0.11808963733645762  0.04638963882956429  1.0000
  H   H771      1.0  0.9288994828182768  0.1216305789942044  0.9779436524922457  1.0000
  H   H772      1.0  0.9062137062029454  0.10095688042840967  0.923789386297066  1.0000
  H   H773      1.0  0.9112334650009127  0.18691485008745837  0.14972019282501386  1.0000
  H   H774      1.0  0.9189040970712082  0.15851904635220915  0.13382236201956246  1.0000
  H   H775      1.0  0.9060768240569714  0.16104923020761466  0.003683276313034641  1.0000
  H   H776      1.0  0.8965800306350865  0.18699828103895408  0.018472045357952223  1.0000
  H   H777      1.0  0.9503458292160534  0.12478778741144679  0.050326043881626224  1.0000
  H   H778      1.0  0.9889689965602813  0.14375593247309887  0.03484081700909049  1.0000
  H   H779      1.0  0.9856378398231056  0.19975523028012007  0.9993835502261723  1.0000
  H   H780      1.0  0.9493396670579335  0.18342554128855043  0.019568118900170923  1.0000
  H   H781      1.0  0.9478919186404098  0.14911748569232094  0.11970388567480986  1.0000
  H   H782      1.0  0.9445252536541843  0.1337140076093368  0.18862729706931733  1.0000
  H   H783      1.0  0.8827384825965893  0.07937807847131478  0.1511249960020979  1.0000
  H   H784      1.0  0.8864075578869628  0.0961105309899337  0.08427057948156304  1.0000
  C   C1233     1.0  0.478616021979968  0.3128920339228119  0.18058655213274152  1.0000
  C   C1234     1.0  0.49273456707672864  0.30756741629503165  0.19939902718381963  1.0000
  C   C1235     1.0  0.4845424369019404  0.28739370190640917  0.21620477533250845  1.0000
  C   C1236     1.0  0.4624706610022592  0.2720500402554683  0.2162887427487344  1.0000
  C   C1237     1.0  0.4488522674101105  0.27742562525381514  0.19414210085560463  1.0000
  C   C1238     1.0  0.45706086641258836  0.29774583919220726  0.17651334623401926  1.0000
  H   H785      1.0  0.5098542359427105  0.31948631120063126  0.20238474497276876  1.0000
  H   H786      1.0  0.4955622587920994  0.2828858762083559  0.2294930120561503  1.0000
  H   H787      1.0  0.43147227954765505  0.26563723769207864  0.19160232237829758  1.0000
  H   H788      1.0  0.44610813686134665  0.3016380968248282  0.16133757231117027  1.0000
  C   C1239     1.0  0.4217291543154239  0.25234804654727283  0.275534516317317  1.0000
  C   C1240     1.0  0.4278211167072255  0.2385724807939739  0.2559908643271925  1.0000
  C   C1241     1.0  0.4131468863808507  0.21656181903863217  0.25627138468402233  1.0000
  C   C1242     1.0  0.39312738364676597  0.20807840408938302  0.2744967167909285  1.0000
  C   C1243     1.0  0.38704583895576555  0.22168535666626227  0.29228491515793176  1.0000
  C   C1244     1.0  0.40128727582469337  0.24381342615656534  0.2930164065816831  1.0000
  C   C1245     1.0  0.4521480085589244  0.24805724304610946  0.23727556504994887  1.0000
  C   C1246     1.0  0.46373834563209404  0.24724290877244678  0.2801788264402579  1.0000
  C   C1247     1.0  0.4619855303051579  0.22789478537886448  0.2939592317271718  1.0000
  C   C1248     1.0  0.47142238167580214  0.22751964937389868  0.3314354305638791  1.0000
  C   C1249     1.0  0.48276669261989696  0.24592137599936242  0.35557527651708465  1.0000
  C   C1250     1.0  0.4838796416691233  0.2648626553613054  0.3425304509550866  1.0000
  C   C1251     1.0  0.4733456987710443  0.2652101649799742  0.30682983276261855  1.0000
  C   C1252     1.0  0.4387355112252561  0.22642433882897073  0.1673259900631367  1.0000
  C   C1253     1.0  0.44062383332119837  0.21544084542556385  0.13456800525503734  1.0000
  C   C1254     1.0  0.45751511136082385  0.21093361270787916  0.13094356903030188  1.0000
  C   C1255     1.0  0.47472136413496885  0.22199804735311968  0.1594107245238424  1.0000
  C   C1256     1.0  0.4730574644961362  0.23329924588291004  0.1922935597598133  1.0000
  C   C1257     1.0  0.4544927772430438  0.23509889651219357  0.19809045632645528  1.0000
  C   C1258     1.0  0.45756987089690604  0.1952639216556283  0.09318905122969953  1.0000
  C   C1259     1.0  0.39327317271355533  0.14164593515910606  0.05157297573681721  1.0000
  C   C1260     1.0  0.41107535985310073  0.1484793190799611  0.026503670238084025  1.0000
  C   C1261     1.0  0.431051377406157  0.16432969104307552  0.04032134196253648  1.0000
  C   C1262     1.0  0.4335063295821201  0.17579207572492672  0.07807523079372888  1.0000
  C   C1263     1.0  0.41461361294128535  0.16835175331104152  0.10238426951820628  1.0000
  C   C1264     1.0  0.39520959054702265  0.1523428175800367  0.08906143947701815  1.0000
  C   C1265     1.0  0.468035941444721  0.18205009635239966  0.11439098106911086  1.0000
  C   C1266     1.0  0.49052157251528655  0.1902800645493628  0.11332141858752082  1.0000
  C   C1267     1.0  0.4994058240764367  0.17870812462438304  0.12979475640306035  1.0000
  C   C1268     1.0  0.4864868786821665  0.159322462193355  0.1498818379633665  1.0000
  C   C1269     1.0  0.46455233891182823  0.1514190789113514  0.15366037169353539  1.0000
  C   C1270     1.0  0.4556138041413224  0.1628552168168428  0.13717665588273198  1.0000
  C   C1271     1.0  0.4814087511366801  0.20490307456727286  0.024474300436937133  1.0000
  C   C1272     1.0  0.4876371807433615  0.21461377637654047  0.9856359483757191  1.0000
  C   C1273     1.0  0.4807138276755464  0.22812701284805456  0.972443315002387  1.0000
  C   C1274     1.0  0.4689186052205934  0.2336754077040766  0.9991682252304147  1.0000
  C   C1275     1.0  0.46249648555279554  0.22379754897181478  0.037900438703706664  1.0000
  C   C1276     1.0  0.46867182873762137  0.20932044099389374  0.051531463755761675  1.0000
  H   H789      1.0  0.4324469763858153  0.26992483049915955  0.27724657105115297  1.0000
  H   H790      1.0  0.4176120873186124  0.20515879536988227  0.24379074468273365  1.0000
  H   H791      1.0  0.38264436787444106  0.19074244177372782  0.2723387227454505  1.0000
  H   H792      1.0  0.39703242716954784  0.25530961659648754  0.3060417340919732  1.0000
  H   H793      1.0  0.4540242518691994  0.2136192745248866  0.2757706943307466  1.0000
  H   H794      1.0  0.4702002241352234  0.21238851692440805  0.3406058045606935  1.0000
  H   H795      1.0  0.4912787022146161  0.27968534677078877  0.36157564468783976  1.0000
  H   H796      1.0  0.47332478216594814  0.27999315495818744  0.2994708906664094  1.0000
  H   H797      1.0  0.4248887574915092  0.22862433694173206  0.16955034038136263  1.0000
  H   H798      1.0  0.42732769709123974  0.20908809795927116  0.1120002683419578  1.0000
  H   H799      1.0  0.489630785493926  0.22070891481237923  0.15765904471718065  1.0000
  H   H800      1.0  0.4871629732538477  0.24196876868646738  0.21217119450661195  1.0000
  H   H801      1.0  0.4106780150318805  0.14033156840797414  0.9969731219897505  1.0000
  H   H802      1.0  0.44491906195814346  0.16792396677297078  0.021058776401710715  1.0000
  H   H803      1.0  0.4140412734806716  0.1744106255816923  0.13428150968881314  1.0000
  H   H804      1.0  0.38106162723661496  0.14753861658596323  0.10783963569525497  1.0000
  H   H805      1.0  0.5011244524949029  0.2049459635663673  0.09650120414240357  1.0000
  H   H806      1.0  0.5167179237832614  0.18499299998554214  0.12526145938097255  1.0000
  H   H807      1.0  0.4540448673765538  0.1363140495330189  0.16988243622980695  1.0000
  H   H808      1.0  0.4376799630211314  0.1551800482672412  0.14130426763541337  1.0000
  H   H809      1.0  0.48606538008541345  0.19300633085428565  0.03206926330422337  1.0000
  H   H810      1.0  0.49768096891086844  0.21017119987619318  0.967474456663921  1.0000
  H   H811      1.0  0.4618721054889908  0.24329056757888592  0.9877084025814463  1.0000
  H   H812      1.0  0.45048540189365976  0.22651132140921856  0.05443635897553446  1.0000
  C   C1277     1.0  0.49161461316662036  0.3115607297933279  0.6822745674241727  1.0000
  C   C1278     1.0  0.5020593812574471  0.30286878719899346  0.7042224549837639  1.0000
  C   C1279     1.0  0.49038018079458506  0.2821184472687785  0.7196007570566112  1.0000
  C   C1280     1.0  0.46827923023182916  0.26990843751829235  0.7126412105357091  1.0000
  C   C1281     1.0  0.4585666191050733  0.2787909168374321  0.6886837657113839  1.0000
  C   C1282     1.0  0.469998745618284  0.29991621053999046  0.6757112716315281  1.0000
  H   H813      1.0  0.5191585156452168  0.31209710048742656  0.7090340709697468  1.0000
  H   H814      1.0  0.49848338523118985  0.275169733782727  0.735652056398086  1.0000
  H   H815      1.0  0.44153079157652825  0.26927051069215263  0.6784158400942374  1.0000
  H   H816      1.0  0.46194125783418327  0.30713353792308434  0.6574963175198858  1.0000
  C   C1283     1.0  0.42378971961801276  0.25289598033729804  0.7628486936835631  1.0000
  C   C1284     1.0  0.42896793335224914  0.23841942677163236  0.7430047088001958  1.0000
  C   C1285     1.0  0.41268574447196316  0.21684845287212606  0.7420235165207012  1.0000
  C   C1286     1.0  0.3925556695087807  0.20949081460429694  0.7592258298823524  1.0000
  C   C1287     1.0  0.3875563639704236  0.2241905448750115  0.7776043160405771  1.0000
  C   C1288     1.0  0.40317261026002577  0.24607064678640297  0.7791421462478619  1.0000
  C   C1289     1.0  0.45328146294672167  0.24524240901803407  0.7281736101139897  1.0000
  C   C1290     1.0  0.4612228569441077  0.24104829325299051  0.7715787890934248  1.0000
  C   C1291     1.0  0.4598869971086111  0.22128479302290657  0.7802648566445912  1.0000
  C   C1292     1.0  0.4614299768638687  0.2157833746135053  0.8212862415603825  1.0000
  C   C1293     1.0  0.46614645519187875  0.2305224591168055  0.852822767774393  1.0000
  C   C1294     1.0  0.4684627417219635  0.25081543006379375  0.8439511542472965  1.0000
  C   C1295     1.0  0.46565581748774715  0.25555765780930184  0.8045808140325779  1.0000
  C   C1296     1.0  0.43961609040276795  0.22742377124086108  0.6540747239298536  1.0000
  C   C1297     1.0  0.44165092920695587  0.21852328704139576  0.6169686735908915  1.0000
  C   C1298     1.0  0.45683913680043275  0.21183640280665084  0.6142232221165365  1.0000
  C   C1299     1.0  0.47353960014429947  0.2203040456435944  0.6441370072529216  1.0000
  C   C1300     1.0  0.4719570000276202  0.22974253039952525  0.680038581171863  1.0000
  C   C1301     1.0  0.4543900075155632  0.23281741303846185  0.6873031778565823  1.0000
  C   C1302     1.0  0.455528270746197  0.1951724128195104  0.5788468376548885  1.0000
  C   C1303     1.0  0.39074427214223234  0.1427077925723784  0.5391557230411045  1.0000
  C   C1304     1.0  0.40888484018947086  0.14891832775059025  0.5145095567129032  1.0000
  C   C1305     1.0  0.4288695619915716  0.1647808796021654  0.5271549866995942  1.0000
  C   C1306     1.0  0.4318820137550228  0.1752503500816818  0.5658869229632314  1.0000
  C   C1307     1.0  0.41370779636214094  0.167631917030648  0.5925457914032163  1.0000
  C   C1308     1.0  0.39339447037856734  0.15194595192237154  0.5790732666424643  1.0000
  C   C1309     1.0  0.4673356428682579  0.18179290634168616  0.5907563734319586  1.0000
  C   C1310     1.0  0.4640653316913627  0.17167713130215081  0.6301581621171739  1.0000
  C   C1311     1.0  0.47513512475819775  0.16134721781719435  0.6410236086737561  1.0000
  C   C1312     1.0  0.4889118204308759  0.15943557178673265  0.6124778320039741  1.0000
  C   C1313     1.0  0.4913717572816359  0.16805751584904421  0.5726735028964021  1.0000
  C   C1314     1.0  0.480064390560647  0.17841036314815312  0.561191666318086  1.0000
  C   C1315     1.0  0.4874604665858289  0.22604476425088307  0.5365140515193882  1.0000
  C   C1316     1.0  0.4958326776179814  0.24024921796397394  0.5030937619226301  1.0000
  C   C1317     1.0  0.48225272358391863  0.24054038469275715  0.47284662299898095  1.0000
  C   C1318     1.0  0.4600819289858559  0.2269571945590188  0.47761421112626856  1.0000
  C   C1319     1.0  0.45193107135740096  0.21437009433932164  0.5125849103185101  1.0000
  C   C1320     1.0  0.4653332541514823  0.21216116114802222  0.5403413303788269  1.0000
  H   H817      1.0  0.4364806930300832  0.26973624678784697  0.7672734934824375  1.0000
  H   H818      1.0  0.41528997608579654  0.20447161683874535  0.7276547103507955  1.0000
  H   H819      1.0  0.3810454152706844  0.19189924474947576  0.7580622364739775  1.0000
  H   H820      1.0  0.4007399210370617  0.25783065353739576  0.7963193008331159  1.0000
  H   H821      1.0  0.4553212689232386  0.2091650777957831  0.7545871804841009  1.0000
  H   H822      1.0  0.45934363168868597  0.2001776031161981  0.8280854008817518  1.0000
  H   H823      1.0  0.4701715315632784  0.26191827927893985  0.8692703178441255  1.0000
  H   H824      1.0  0.46623368120171627  0.27105627543137073  0.802058646698749  1.0000
  H   H825      1.0  0.4264795894235173  0.23098609518071278  0.6567635681573145  1.0000
  H   H826      1.0  0.4298998625472806  0.21402720672229497  0.5926967440616  1.0000
  H   H827      1.0  0.486957503158379  0.21754235833454863  0.6411305334734447  1.0000
  H   H828      1.0  0.48527342226119935  0.23629421890925154  0.7018166469907725  1.0000
  H   H829      1.0  0.4081088613501219  0.1428049066818612  0.48304221713398515  1.0000
  H   H830      1.0  0.44218848584870873  0.16930816002351723  0.5039334360848899  1.0000
  H   H831      1.0  0.4146358652714645  0.17463535211978842  0.6229753314557459  1.0000
  H   H832      1.0  0.37894167694352904  0.14886678333528067  0.5971341232486732  1.0000
  H   H833      1.0  0.45396139207402325  0.1728096246673254  0.6543042977644787  1.0000
  H   H834      1.0  0.4721786812562882  0.15325236325280706  0.6708524829398004  1.0000
  H   H835      1.0  0.5009897978524932  0.16632253938991282  0.5483512558143161  1.0000
  H   H836      1.0  0.482530506803307  0.18571468214224776  0.5310954800528206  1.0000
  H   H837      1.0  0.4987524302292778  0.2260313191447808  0.5586443402078598  1.0000
  H   H838      1.0  0.5131831825665597  0.24968551211900553  0.49942687026272425  1.0000
  H   H839      1.0  0.4493182488327264  0.2260762152419849  0.45389891952476735  1.0000
  H   H840      1.0  0.4347728747721308  0.20638218581758097  0.5153523757222126  1.0000
  C   C1321     1.0  0.23607045912688496  0.18134137526251612  0.47090310752228987  1.0000
  C   C1322     1.0  0.22601833522934722  0.16150712390728528  0.45068488584001276  1.0000
  C   C1323     1.0  0.23821677462042837  0.1529527518593091  0.43348571732541125  1.0000
  C   C1324     1.0  0.26069300751469177  0.16390309317272142  0.43824387091154987  1.0000
  C   C1325     1.0  0.26998505618449953  0.18192211516597998  0.46463542735231345  1.0000
  C   C1326     1.0  0.2581644805407026  0.1909961104962579  0.479526278132463  1.0000
  H   H841      1.0  0.20922698760746952  0.15291795413837325  0.4425177180520405  1.0000
  H   H842      1.0  0.22997150770287236  0.13821271526641654  0.4143996405810125  1.0000
  H   H843      1.0  0.28712574890462245  0.19006978624750182  0.4725195589058161  1.0000
  H   H844      1.0  0.26612103084888933  0.2068171528630277  0.49475362754692653  1.0000
  C   C1327     1.0  0.3045621157791092  0.1918737240064551  0.3873665353421179  1.0000
  C   C1328     1.0  0.2992942152312873  0.1723885088192666  0.40753443947160034  1.0000
  C   C1329     1.0  0.31550491480702286  0.16751173313103632  0.4125221668923643  1.0000
  C   C1330     1.0  0.33637853253416977  0.18154500819325536  0.3987068538031991  1.0000
  C   C1331     1.0  0.3414732462645941  0.20063546528342663  0.3777841863817978  1.0000
  C   C1332     1.0  0.3256392114956096  0.20598338634091085  0.37337825566522126  1.0000
  C   C1333     1.0  0.2744289222220256  0.1546729270897606  0.41692180791484146  1.0000
  C   C1334     1.0  0.2676180545425823  0.14616625697366809  0.36837165916215936  1.0000
  C   C1335     1.0  0.27366918683518565  0.13191476171049826  0.3505718248610724  1.0000
  C   C1336     1.0  0.26832980200224166  0.1243286399161388  0.3101520491858815  1.0000
  C   C1337     1.0  0.25808968147001227  0.13210804724377262  0.28566532660309824  1.0000
  C   C1338     1.0  0.25316689290582367  0.14746223051750146  0.3013496222938776  1.0000
  C   C1339     1.0  0.2581102601953604  0.15467717772529957  0.34216564869732585  1.0000
  C   C1340     1.0  0.28123216107447147  0.14355487612281048  0.4906716160764652  1.0000
  C   C1341     1.0  0.2775288595417879  0.1285884490016474  0.5211200252112927  1.0000
  C   C1342     1.0  0.2666098983107526  0.10675226597484241  0.5122484116841962  1.0000
  C   C1343     1.0  0.25861906946800567  0.10060286857497253  0.4720541215424661  1.0000
  C   C1344     1.0  0.2606348334447029  0.11497599441785575  0.4428636512275034  1.0000
  C   C1345     1.0  0.27207283026173285  0.13723304478288514  0.4509270390628367  1.0000
  C   C1346     1.0  0.2634767974517787  0.08931529172197093  0.547039854594607  1.0000
  C   C1347     1.0  0.3300007769209512  0.10099657394863855  0.5452567263174487  1.0000
  C   C1348     1.0  0.32412511954709994  0.11011088655449676  0.5772366759654617  1.0000
  C   C1349     1.0  0.30277980641266494  0.10539750529473249  0.5789065897488322  1.0000
  C   C1350     1.0  0.28771053488829973  0.09332162039243144  0.5481468407560881  1.0000
  C   C1351     1.0  0.29467441076882156  0.08569021969371099  0.5144152113014133  1.0000
  C   C1352     1.0  0.31508756268290355  0.08841227652259565  0.5146101918184924  1.0000
  C   C1353     1.0  0.2444309881387503  0.06503134927254761  0.5372216421055622  1.0000
  C   C1354     1.0  0.2244169903428343  0.06100822646186249  0.5227805044535143  1.0000
  C   C1355     1.0  0.20912557158513398  0.04127834955694207  0.506845564452877  1.0000
  C   C1356     1.0  0.2130397339728465  0.02417850906613207  0.5066537287828475  1.0000
  C   C1357     1.0  0.23173964426126656  0.027169694822289148  0.5259788139030206  1.0000
  C   C1358     1.0  0.2465936620170641  0.047227666298397517  0.5420678514090914  1.0000
  C   C1359     1.0  0.2576234607949598  0.08422328926253894  0.6276548638656431  1.0000
  C   C1360     1.0  0.25152674813968173  0.08765834719044759  0.6660094184833208  1.0000
  C   C1361     1.0  0.2427112398425519  0.10092695604867308  0.6689404159336059  1.0000
  C   C1362     1.0  0.2383407985236559  0.10911344563391803  0.6331300425791045  1.0000
  C   C1363     1.0  0.2437801971144538  0.1044237184390113  0.5948887024552145  1.0000
  C   C1364     1.0  0.2546762136256199  0.09312828256000481  0.5910079611959316  1.0000
  H   H845      1.0  0.2923324758939034  0.19638379947826345  0.38342289714184175  1.0000
  H   H846      1.0  0.3120131011216475  0.1519701104826769  0.42686266943882306  1.0000
  H   H847      1.0  0.34909047562047213  0.1777691452917366  0.4019869292759966  1.0000
  H   H848      1.0  0.32849725520903084  0.22035240093496117  0.35570736009317044  1.0000
  H   H849      1.0  0.28339552826359177  0.12715888378396956  0.36800371205734894  1.0000
  H   H850      1.0  0.27215248215969484  0.11175020755945674  0.2983286822179722  1.0000
  H   H851      1.0  0.2455559766395557  0.1534441039661592  0.28093484767099663  1.0000
  H   H852      1.0  0.25588408344879426  0.16821837015562402  0.35202159935096655  1.0000
  H   H853      1.0  0.29016805872282775  0.16057957029351083  0.49865952758260673  1.0000
  H   H854      1.0  0.2850210239258523  0.134261314529788  0.5516061725107163  1.0000
  H   H855      1.0  0.2510811612938847  0.08375852185399216  0.4640945136597716  1.0000
  H   H856      1.0  0.252680601690018  0.10826330333132984  0.4125693395981092  1.0000
  H   H857      1.0  0.3357389598749071  0.12042014597201806  0.5999676304404187  1.0000
  H   H858      1.0  0.2989275538483798  0.11426945768826072  0.6021218506694371  1.0000
  H   H859      1.0  0.2841764845517635  0.07610194937678637  0.4890897580104852  1.0000
  H   H860      1.0  0.32012303599162767  0.08176830674762828  0.4890583095399886  1.0000
  H   H861      1.0  0.22144659008822018  0.07434100378443981  0.5206482981538434  1.0000
  H   H862      1.0  0.1945468536203378  0.039563110280075954  0.49317491432799615  1.0000
  H   H863      1.0  0.2355177508643159  0.013828861629802057  0.5256203013393591  1.0000
  H   H864      1.0  0.26146726107575585  0.04868578024158324  0.5566599417195232  1.0000
  H   H865      1.0  0.26615544568939264  0.07520528276199676  0.6269315490442207  1.0000
  H   H866      1.0  0.25439475308627757  0.08117679928369527  0.6939796881430147  1.0000
  H   H867      1.0  0.23124398631830212  0.11934999713882771  0.6364887392281435  1.0000
  H   H868      1.0  0.24039100379018813  0.11134957426823816  0.5671542963242453  1.0000
  C   C1365     1.0  0.2285140769026681  0.18538945428314046  0.9403564405546854  1.0000
  C   C1366     1.0  0.22068025699640692  0.16547332567418577  0.9211351353871512  1.0000
  C   C1367     1.0  0.23517028092003917  0.15908865258806207  0.9072317665805955  1.0000
  C   C1368     1.0  0.25758262456158476  0.17267171437351317  0.9103514548538602  1.0000
  C   C1369     1.0  0.26515855909496205  0.19283805442694338  0.9309187545586498  1.0000
  C   C1370     1.0  0.25072829820162656  0.1988100982215998  0.9462215803023052  1.0000
  H   H869      1.0  0.20291601268633702  0.15398111257077757  0.9191413023576656  1.0000
  H   H870      1.0  0.22840815417328222  0.14286763880768405  0.8926837041288591  1.0000
  H   H871      1.0  0.282019757946265  0.20300687429458905  0.9374128637162018  1.0000
  H   H872      1.0  0.25770877675714937  0.21410712880242233  0.9641094703207826  1.0000
  C   C1371     1.0  0.3034922975399533  0.20167753485339468  0.8628579747098646  1.0000
  C   C1372     1.0  0.2986105967903635  0.1835023038516807  0.8857744751607517  1.0000
  C   C1373     1.0  0.31579900617529905  0.18025927820551366  0.8957499300022795  1.0000
  C   C1374     1.0  0.3365502971107988  0.19366470364393076  0.8814691795497643  1.0000
  C   C1375     1.0  0.34061474113454127  0.2115274407534946  0.8585338100165794  1.0000
  C   C1376     1.0  0.3240686167485736  0.21521774503105282  0.8476620737658978  1.0000
  C   C1377     1.0  0.2738671780392398  0.16443733058577203  0.8948725176754239  1.0000
  C   C1378     1.0  0.26841142784225197  0.15299966173408794  0.8490206476913518  1.0000
  C   C1379     1.0  0.276836748690279  0.14003851875509052  0.8360229948350987  1.0000
  C   C1380     1.0  0.2745449893059077  0.13226828820733033  0.7958035459169712  1.0000
  C   C1381     1.0  0.2642630858215943  0.13800315242249958  0.7662577078853967  1.0000
  C   C1382     1.0  0.2550672360942485  0.15023635483085604  0.7786829985786112  1.0000
  C   C1383     1.0  0.2574106107370154  0.15786484830635092  0.8186477148857161  1.0000
  C   C1384     1.0  0.28135611615083894  0.15781593457301465  0.9716382341576735  1.0000
  C   C1385     1.0  0.27949930113130667  0.14473385881990497  0.004666921573227924  1.0000
  C   C1386     1.0  0.2681385846448919  0.12188816490564303  0.0007417499148273807  1.0000
  C   C1387     1.0  0.2571872609474297  0.11348990877222319  0.9632572167703242  1.0000
  C   C1388     1.0  0.25869734575429365  0.12646466948162938  0.9302174536665752  1.0000
  C   C1389     1.0  0.27176169858647775  0.14907477489506962  0.9335038188334719  1.0000
  C   C1390     1.0  0.2706086374351738  0.10734579092427285  0.035430790315607086  1.0000
  C   C1391     1.0  0.3385462313556844  0.12519930332499649  0.007964891225737975  1.0000
  C   C1392     1.0  0.33375389692495533  0.13592006221534397  0.037347889077081045  1.0000
  C   C1393     1.0  0.31287335320638726  0.1303747180654357  0.04672519400976322  1.0000
  C   C1394     1.0  0.2953393849603271  0.11315896027309562  0.02584023330448733  1.0000
  C   C1395     1.0  0.30033012262540243  0.10334575590682617  0.9931018152716167  1.0000
  C   C1396     1.0  0.32154540457586395  0.10904931570222866  0.9841924635799242  1.0000
  C   C1397     1.0  0.25247072208095517  0.08138518722747412  0.03321776144675993  1.0000
  C   C1398     1.0  0.23078222153364764  0.07440907185792899  0.026699091033750025  1.0000
  C   C1399     1.0  0.21564365909843244  0.05255389830631702  0.020960782967643244  1.0000
  C   C1400     1.0  0.22207813650713085  0.03703446047252427  0.022325803829549042  1.0000
  C   C1401     1.0  0.24375834968489926  0.043530006669927505  0.0313664843340354  1.0000
  C   C1402     1.0  0.2579665244768669  0.06540581512450788  0.036827731375066945  1.0000
  C   C1403     1.0  0.2754497611689341  0.10622047490843887  0.11559262712678671  1.0000
  C   C1404     1.0  0.27477407896753475  0.11244619579937995  0.15656180758155358  1.0000
  C   C1405     1.0  0.26647252790641796  0.12573152086340955  0.16509597902022136  1.0000
  C   C1406     1.0  0.2569767025100581  0.1312777508493727  0.1335440430556674  1.0000
  C   C1407     1.0  0.25711921894846274  0.12427489506803706  0.0931019389664239  1.0000
  C   C1408     1.0  0.2677478627266544  0.11303080762740803  0.08305258021922894  1.0000
  H   H873      1.0  0.2906055041902292  0.205017728886607  0.8559644699770055  1.0000
  H   H874      1.0  0.3129947836379713  0.16574308398038534  0.9115527864268311  1.0000
  H   H875      1.0  0.3490714806700437  0.18964457959415712  0.8874192301677248  1.0000
  H   H876      1.0  0.32684357433533884  0.22825541073921193  0.8272079885548961  1.0000
  H   H877      1.0  0.28630955058576285  0.13698066019284696  0.8584363197580398  1.0000
  H   H878      1.0  0.28195350631702487  0.12282832981285616  0.7870074087190666  1.0000
  H   H879      1.0  0.24727387659672437  0.1559194007441063  0.7561690385500809  1.0000
  H   H880      1.0  0.25017689891075695  0.1675082328255235  0.8284470582924629  1.0000
  H   H881      1.0  0.2910862420152794  0.17514253746298306  0.9768083627073179  1.0000
  H   H882      1.0  0.2889070882415052  0.15312546513026074  0.03225103546369383  1.0000
  H   H883      1.0  0.2482427469073733  0.09628336701462863  0.9572285449761221  1.0000
  H   H884      1.0  0.24894485840134198  0.11780378344122222  0.9030239612281478  1.0000
  H   H885      1.0  0.34674108276784826  0.1487702086017754  0.05636352124756734  1.0000
  H   H886      1.0  0.3107677811039289  0.14076296101342298  0.06819160548605112  1.0000
  H   H887      1.0  0.2876257349689707  0.09050748616115316  0.9755472790404033  1.0000
  H   H888      1.0  0.3244055028501016  0.09996907351464109  0.9600463279326192  1.0000
  H   H889      1.0  0.22642143729668543  0.08650541983951067  0.022426250244315247  1.0000
  H   H890      1.0  0.19822669768746332  0.04745909413262623  0.015457269182264234  1.0000
  H   H891      1.0  0.24916536566689887  0.031795576506739406  0.031785598100343856  1.0000
  H   H892      1.0  0.2743872576060878  0.07007907360270627  0.043701738056218166  1.0000
  H   H893      1.0  0.2838639522856383  0.09734057732280747  0.10917902605370602  1.0000
  H   H894      1.0  0.2825147201673293  0.10855996349546965  0.18125797697784435  1.0000
  H   H895      1.0  0.24901959319938113  0.14075325753260945  0.13950478615359677  1.0000
  H   H896      1.0  0.24960942068408196  0.12817595162802436  0.06792775281858449  1.0000
  C   C1409     1.0  0.3111641163897658  0.46241756338337064  0.2842234142308282  1.0000
  C   C1410     1.0  0.30435037377095187  0.47435781152553935  0.26041912345782153  1.0000
  C   C1411     1.0  0.2840843185299494  0.4639750856944739  0.2415050698470393  1.0000
  C   C1412     1.0  0.2705402371746807  0.4413583425637955  0.24491943028885735  1.0000
  C   C1413     1.0  0.27773311449595145  0.43005323732864953  0.26945080969974583  1.0000
  C   C1414     1.0  0.29733359634451134  0.4403792822401118  0.28856456109818157  1.0000
  H   H897      1.0  0.31452209953254956  0.4911467985650224  0.25494425922906494  1.0000
  H   H898      1.0  0.2793641376113722  0.4740148108980933  0.22350805363593854  1.0000
  H   H899      1.0  0.2684036139902401  0.41317983952525056  0.27458225663067937  1.0000
  H   H900      1.0  0.30302977805116144  0.43131726247036206  0.3052426284566541  1.0000
  C   C1415     1.0  0.2564499046334039  0.399680461993584  0.18818041430356036  1.0000
  C   C1416     1.0  0.2412189639467114  0.4045468921185023  0.20412164399829708  1.0000
  C   C1417     1.0  0.21953578250173755  0.38813801475673937  0.20124662482549607  1.0000
  C   C1418     1.0  0.2136625418137399  0.3676617518363724  0.1866932161337752  1.0000
  C   C1419     1.0  0.2291800908314584  0.36276499745040786  0.1732983690951498  1.0000
  C   C1420     1.0  0.2506508961398866  0.3793406073994131  0.17327824207403195  1.0000
  C   C1421     1.0  0.24761947211958896  0.42796217107123224  0.22248283349774872  1.0000
  C   C1422     1.0  0.24613513408150828  0.4394033698105755  0.18037333150277443  1.0000
  C   C1423     1.0  0.2277692748773532  0.4408146830711419  0.16996514570721305  1.0000
  C   C1424     1.0  0.2271038618914924  0.4502252937632504  0.1328006012131273  1.0000
  C   C1425     1.0  0.243234535366419  0.4555869081574492  0.10292707011897793  1.0000
  C   C1426     1.0  0.26100279389017883  0.4535654376927561  0.112193990920217  1.0000
  C   C1427     1.0  0.26199974750138005  0.44585504170011775  0.14957049810544995  1.0000
  C   C1428     1.0  0.22559479492945425  0.41122058410255047  0.29185721595917774  1.0000
  C   C1429     1.0  0.21308277834849246  0.41095844565702994  0.3248123826772909  1.0000
  C   C1430     1.0  0.20690813660034849  0.426425145150577  0.3294164387579961  1.0000
  C   C1431     1.0  0.2163666341628766  0.44400255210512907  0.3016719691164679  1.0000
  C   C1432     1.0  0.22953555050269853  0.4445532327511405  0.26951056179368943  1.0000
  C   C1433     1.0  0.23316012467232988  0.42757447263977366  0.26185380268187736  1.0000
  C   C1434     1.0  0.19178978584026746  0.42453428833404805  0.368840241372559  1.0000
  C   C1435     1.0  0.14657586375610251  0.35971952304489807  0.4245260480809242  1.0000
  C   C1436     1.0  0.15425449454904647  0.3784846962956522  0.4476280945077413  1.0000
  C   C1437     1.0  0.16888178136137177  0.398093078238792  0.43219318518800015  1.0000
  C   C1438     1.0  0.17681568839645187  0.40084915100358726  0.3904421957566873  1.0000
  C   C1439     1.0  0.1679029670817533  0.3816208540722746  0.3672741075418273  1.0000
  C   C1440     1.0  0.15393917336259097  0.3614350096827035  0.38441352396248524  1.0000
  C   C1441     1.0  0.1766079853688808  0.4331480979406699  0.35102153798917407  1.0000
  C   C1442     1.0  0.18306081302645574  0.4554495375194503  0.3483201143735144  1.0000
  C   C1443     1.0  0.16933754670120701  0.4627423915108188  0.33647976523153694  1.0000
  C   C1444     1.0  0.14863714425904379  0.4474705650547634  0.3251017086058598  1.0000
  C   C1445     1.0  0.1418649214879066  0.42542387190656  0.32365507896301526  1.0000
  C   C1446     1.0  0.1558831754961241  0.4184614606480804  0.3354985729520424  1.0000
  C   C1447     1.0  0.20201592368752325  0.450521986032124  0.4337467396305332  1.0000
  C   C1448     1.0  0.214071103476096  0.461354847630583  0.46873945275212237  1.0000
  C   C1449     1.0  0.23261084715242303  0.46056042134788766  0.47635941715345337  1.0000
  C   C1450     1.0  0.24004916917892902  0.4517183721280002  0.4470840359681498  1.0000
  C   C1451     1.0  0.22783563219382352  0.4411460059579192  0.4128020582797842  1.0000
  C   C1452     1.0  0.20820472025492837  0.4397551336713646  0.4052324114312478  1.0000
  H   H901      1.0  0.2737380486819853  0.4115939996232585  0.19100920422473133  1.0000
  H   H902      1.0  0.2068372550593042  0.3907179429542884  0.21160732343060756  1.0000
  H   H903      1.0  0.19699030127393796  0.3552401236993745  0.18694323147422331  1.0000
  H   H904      1.0  0.2633373645280964  0.37648363534706236  0.16328171675727135  1.0000
  H   H905      1.0  0.21366330098244324  0.4333781496575673  0.19046011392986034  1.0000
  H   H906      1.0  0.21266665792120035  0.4501311990960629  0.12508440449207658  1.0000
  H   H907      1.0  0.2743055682999708  0.4586387015541566  0.0901533303726608  1.0000
  H   H908      1.0  0.2757770235633706  0.44413492899783746  0.1549714584285395  1.0000
  H   H909      1.0  0.22902978694868112  0.3980864033106497  0.2883431638658854  1.0000
  H   H910      1.0  0.20878259680087682  0.39830499045384543  0.3486188748432323  1.0000
  H   H911      1.0  0.21552348300166838  0.45851387928110493  0.30568479395183656  1.0000
  H   H912      1.0  0.23636577004523895  0.4584626110625054  0.24842499129511558  1.0000
  H   H913      1.0  0.14736319030278527  0.3777615813395345  0.4784130022768827  1.0000
  H   H914      1.0  0.1740972998035555  0.41193148541692354  0.4519742731303742  1.0000
  H   H915      1.0  0.17217437359884355  0.3816453550578169  0.3347343751189745  1.0000
  H   H916      1.0  0.1493548740046126  0.3466648682364943  0.3671514585068905  1.0000
  H   H917      1.0  0.19886008215121212  0.4675596979999568  0.35925160271813955  1.0000
  H   H918      1.0  0.17444546078922787  0.480319107957589  0.3370269686181781  1.0000
  H   H919      1.0  0.12533606138439243  0.4125392133995367  0.3141705347459396  1.0000
  H   H920      1.0  0.1499343298471393  0.4010269720849869  0.33206754482086115  1.0000
  H   H921      1.0  0.18639303278399258  0.4498002322167559  0.43247936626951944  1.0000
  H   H922      1.0  0.20860379922549133  0.4685192356584394  0.4914043654390365  1.0000
  H   H923      1.0  0.2547559895842253  0.45042453525231296  0.45225101967074444  1.0000
  H   H924      1.0  0.2344063516128201  0.4336948257091979  0.3928071207380332  1.0000
  C   C1453     1.0  0.31428248447415924  0.4726560058490153  0.7686729504195371  1.0000
  C   C1454     1.0  0.30268230068489244  0.4813519436420014  0.7504013890610008  1.0000
  C   C1455     1.0  0.2825040513264353  0.46796851131561784  0.7352620953639278  1.0000
  C   C1456     1.0  0.2730799788059495  0.4454440868657669  0.7366426832187295  1.0000
  C   C1457     1.0  0.28426371702027287  0.4368571951498136  0.7564332057022526  1.0000
  C   C1458     1.0  0.3050641751136488  0.45040021491547366  0.7701793321563253  1.0000
  H   H925      1.0  0.30912216972742473  0.4990755962809657  0.7468540015889821  1.0000
  H   H926      1.0  0.2737885783165223  0.4750999503597785  0.7213241332398258  1.0000
  H   H927      1.0  0.27642509131593573  0.4191051026882575  0.7597604538807949  1.0000
  H   H928      1.0  0.314404951832624  0.4430892490201057  0.7808372188076298  1.0000
  C   C1459     1.0  0.2595660825055711  0.40238911598778093  0.6822777122712224  1.0000
  C   C1460     1.0  0.24406638467435965  0.40653214574596697  0.7009423795109664  1.0000
  C   C1461     1.0  0.222621820969096  0.3894973840898204  0.7022820843541224  1.0000
  C   C1462     1.0  0.21711177023660844  0.3694057453821973  0.68723084637444  1.0000
  C   C1463     1.0  0.2327350955592691  0.3657568524892476  0.6691794243093802  1.0000
  C   C1464     1.0  0.25382464076609323  0.3820631638344591  0.666518883705366  1.0000
  C   C1465     1.0  0.24949214393251778  0.4303418292270784  0.7170817345698318  1.0000
  C   C1466     1.0  0.24760794738340464  0.4396179476134165  0.6723745889118367  1.0000
  C   C1467     1.0  0.22820970020351805  0.4374299948208708  0.6595153093257687  1.0000
  C   C1468     1.0  0.22466844971524913  0.44150056175143493  0.6192329634666481  1.0000
  C   C1469     1.0  0.24099063488342043  0.4469494258143962  0.5895518970119381  1.0000
  C   C1470     1.0  0.26151900013971585  0.4514982989779398  0.6019960567874506  1.0000
  C   C1471     1.0  0.26445818074029104  0.447580236938986  0.6429797035386459  1.0000
  C   C1472     1.0  0.22813966924851342  0.415858083817986  0.788315665091726  1.0000
  C   C1473     1.0  0.21528356161884618  0.41601183208579307  0.8208365284322808  1.0000
  C   C1474     1.0  0.2088502800427615  0.43159865222383403  0.8239750857878435  1.0000
  C   C1475     1.0  0.21714587270623928  0.44753517430212536  0.7933191167477383  1.0000
  C   C1476     1.0  0.2291108746496085  0.44674807810449413  0.759556038822567  1.0000
  C   C1477     1.0  0.23480118885070347  0.43094017524334216  0.7557602084336249  1.0000
  C   C1478     1.0  0.19231992374418277  0.43021006055083943  0.8622824676997765  1.0000
  C   C1479     1.0  0.13961218643001516  0.36284695721588756  0.8889539155279599  1.0000
  C   C1480     1.0  0.14403446399425254  0.37892269071940965  0.9177041072559701  1.0000
  C   C1481     1.0  0.15977542160334254  0.4000946459170182  0.9084551120829141  1.0000
  C   C1482     1.0  0.1725329689181414  0.4054684111830116  0.8719780311538844  1.0000
  C   C1483     1.0  0.16569694718172007  0.38900808112241586  0.8420233630058538  1.0000
  C   C1484     1.0  0.1491968083624702  0.36781376467845756  0.8503194695228621  1.0000
  C   C1485     1.0  0.18143795645661695  0.4440027936528789  0.8467280541921481  1.0000
  C   C1486     1.0  0.1916744031019718  0.46676591186793354  0.8527189878217543  1.0000
  C   C1487     1.0  0.18263364671529714  0.4781379158997527  0.8372589197256158  1.0000
  C   C1488     1.0  0.16387584598031266  0.46773783984833994  0.8134335584773765  1.0000
  C   C1489     1.0  0.15393742885190312  0.44568732119552207  0.806087195769366  1.0000
  C   C1490     1.0  0.16250600060244216  0.43418995553574213  0.8228964032498094  1.0000
  C   C1491     1.0  0.19777268992517608  0.4473511178899844  0.9379695016439921  1.0000
  C   C1492     1.0  0.20437605050412397  0.4487850720659924  0.9793997166762393  1.0000
  C   C1493     1.0  0.21844361165668358  0.44164440174452985  0.9901173554214874  1.0000
  C   C1494     1.0  0.22577460888095743  0.4331325510599977  0.9596186287338653  1.0000
  C   C1495     1.0  0.22001972488783295  0.43262839042375656  0.9178456253732048  1.0000
  C   C1496     1.0  0.2048670661554696  0.4386606114860228  0.9062065464424057  1.0000
  H   H929      1.0  0.276751832472089  0.4151728979038725  0.6816801913317867  1.0000
  H   H930      1.0  0.20951768655105385  0.39245581025157705  0.7117197703501581  1.0000
  H   H931      1.0  0.20033934339987627  0.3563112110427973  0.6906996126702173  1.0000
  H   H932      1.0  0.2658292137155663  0.37893800312842857  0.6519865454888779  1.0000
  H   H933      1.0  0.2146125179345276  0.43105859529590856  0.6806581160406464  1.0000
  H   H934      1.0  0.2087403840624336  0.43842876062545016  0.6107607455148586  1.0000
  H   H935      1.0  0.27389341009955503  0.45546540217755976  0.5781203779864167  1.0000
  H   H936      1.0  0.280218523650411  0.4499376437390912  0.6510399465269296  1.0000
  H   H937      1.0  0.23266320859899847  0.40312267384745787  0.7898094674403154  1.0000
  H   H938      1.0  0.2079287324529598  0.40210189665241924  0.8417277473831856  1.0000
  H   H939      1.0  0.21360925672744538  0.4608027594653298  0.7925832225381173  1.0000
  H   H940      1.0  0.23569500098435658  0.46010630287866666  0.7373691428872015  1.0000
  H   H941      1.0  0.13568250547071745  0.37531343322302607  0.9477185274979443  1.0000
  H   H942      1.0  0.1613726205646861  0.41148120584007736  0.9323119218016501  1.0000
  H   H943      1.0  0.17323342566954142  0.3922867328226501  0.8108076111909087  1.0000
  H   H944      1.0  0.1457241170508822  0.3548508390574645  0.8283684371162213  1.0000
  H   H945      1.0  0.20717129062011758  0.47586021715307697  0.8672764848146397  1.0000
  H   H946      1.0  0.19165784006523343  0.4960235636196131  0.8405767333630092  1.0000
  H   H947      1.0  0.13945032694578363  0.43730065236221666  0.7878722416577237  1.0000
  H   H948      1.0  0.15306631211342864  0.41707805850559354  0.8178709376644495  1.0000
  H   H949      1.0  0.18555660536957952  0.45177977576462003  0.9324440053777358  1.0000
  H   H950      1.0  0.1969338969262211  0.45368793731562257  0.0034861002296004973  1.0000
  H   H951      1.0  0.23641946118697582  0.426760637162988  0.9668863702656342  1.0000
  H   H952      1.0  0.2268732307258114  0.4259059285494052  0.8958411305667198  1.0000
  C   C1497     1.0  0.20134024775708143  0.20805815479684547  0.018628878880318868  1.0000
  C   C1498     1.0  0.17949107885656154  0.19828517732496204  0.02981667225949146  1.0000
  C   C1499     1.0  0.1712910868345884  0.21114503003362023  0.042060756865704534  1.0000
  C   C1500     1.0  0.1843834238591472  0.23373969834907118  0.04521189360946587  1.0000
  C   C1501     1.0  0.20533011934884715  0.24291845444272903  0.03102357021174025  1.0000
  C   C1502     1.0  0.21397762091808667  0.23018630426611075  0.018246968654607912  1.0000
  H   H953      1.0  0.16867165449180013  0.18062417399589487  0.027827965330696695  1.0000
  H   H954      1.0  0.1539197227459662  0.20239912680743627  0.050320383156936835  1.0000
  H   H955      1.0  0.21570200197216707  0.2604103587244866  0.028804723375851222  1.0000
  H   H956      1.0  0.23122531107799907  0.23836549812467586  0.00973654081116507  1.0000
  C   C1503     1.0  0.20840451681509894  0.27805150828078606  0.09748145296778321  1.0000
  C   C1504     1.0  0.1909687896472212  0.2731026561426441  0.07161885980077279  1.0000
  C   C1505     1.0  0.18848157422620973  0.2901045883809495  0.05654403546821794  1.0000
  C   C1506     1.0  0.20216882827538352  0.3114292317513703  0.0691743701890705  1.0000
  C   C1507     1.0  0.21808791319664417  0.3154322727952871  0.097781156891616  1.0000
  C   C1508     1.0  0.22154366518568455  0.29905247562347737  0.11132790004274007  1.0000
  C   C1509     1.0  0.17384101026300394  0.24758695781029333  0.06237458189829131  1.0000
  C   C1510     1.0  0.16254453911522382  0.23931107237604582  0.1073443222849332  1.0000
  C   C1511     1.0  0.15032599190018375  0.2477251642558305  0.12428341194852768  1.0000
  C   C1512     1.0  0.13993916845046572  0.24055933618832406  0.16274646378941887  1.0000
  C   C1513     1.0  0.14273331816021878  0.22606878889309348  0.18481417002160216  1.0000
  C   C1514     1.0  0.15585548629109314  0.21827637820225565  0.17075387334726827  1.0000
  C   C1515     1.0  0.16583714904280406  0.22559474091060594  0.13300250039371558  1.0000
  C   C1516     1.0  0.16462081476314297  0.25183325925786054  0.9850258480480846  1.0000
  C   C1517     1.0  0.15035584106840602  0.24976327944795063  0.9539736282797219  1.0000
  C   C1518     1.0  0.12791962611000166  0.2396181949314183  0.960895436636028  1.0000
  C   C1519     1.0  0.12067668923523361  0.23159676705297505  0.0010456989190628097  1.0000
  C   C1520     1.0  0.1345537761829258  0.23305627341460608  0.03163621786548491  1.0000
  C   C1521     1.0  0.15705646708116214  0.24408499456451982  0.025389356582977286  1.0000
  C   C1522     1.0  0.11244329252608751  0.24072754809115715  0.9267518322178476  1.0000
  C   C1523     1.0  0.13144492220694132  0.3098638560476352  0.9383091451253556  1.0000
  C   C1524     1.0  0.1395966494886122  0.3029928667235501  0.9067191565115007  1.0000
  C   C1525     1.0  0.13475938430461976  0.28140148211563826  0.9037535657436694  1.0000
  C   C1526     1.0  0.11945097746343727  0.26581469244979905  0.9314407991688937  1.0000
  C   C1527     1.0  0.11233143535914528  0.2734116537767425  0.9646283700839768  1.0000
  C   C1528     1.0  0.11809368509289973  0.29490975211241305  0.9675782366165597  1.0000
  C   C1529     1.0  0.0869789528831183  0.2235460313359153  0.9333906043396841  1.0000
  C   C1530     1.0  0.07972457125629544  0.20214436109613457  0.9446774604009212  1.0000
  C   C1531     1.0  0.05805594984084835  0.18806577107722042  0.9535270599986699  1.0000
  C   C1532     1.0  0.042916262597991896  0.19448772295389286  0.951731352333313  1.0000
  C   C1533     1.0  0.05006669403625092  0.2157536258282354  0.9410168584351145  1.0000
  C   C1534     1.0  0.07155581112531405  0.22986053768107706  0.9312049356401689  1.0000
  C   C1535     1.0  0.10779611763911505  0.23892613899066137  0.8444448952340936  1.0000
  C   C1536     1.0  0.11105575148962799  0.23356205911227237  0.8049802096078851  1.0000
  C   C1537     1.0  0.12186798595707149  0.22228877457973462  0.7989546826607326  1.0000
  C   C1538     1.0  0.12739267690301498  0.21464205641263276  0.8340071478762653  1.0000
  C   C1539     1.0  0.12337065823860531  0.2196787988004539  0.8739812987245191  1.0000
  C   C1540     1.0  0.11498197201515954  0.23347017262423556  0.8802080958828499  1.0000
  H   H957      1.0  0.21056240616842564  0.26488580177017584  0.10807832958632431  1.0000
  H   H958      1.0  0.17549832864283163  0.2870594234652799  0.03510844349301673  1.0000
  H   H959      1.0  0.19855099929809922  0.32396044421558773  0.0603593639088679  1.0000
  H   H960      1.0  0.23371152750984306  0.301174249104445  0.1336276959871884  1.0000
  H   H961      1.0  0.14817911707909076  0.25937576111913235  0.10671692529852564  1.0000
  H   H962      1.0  0.1300183855429653  0.24697935297670864  0.17511263135809982  1.0000
  H   H963      1.0  0.1586005843469448  0.2070578933174852  0.191263622351049  1.0000
  H   H964      1.0  0.17686110858567525  0.21994784583139562  0.1255570750036408  1.0000
  H   H965      1.0  0.18221930376297818  0.25954069846904376  0.9791449840652167  1.0000
  H   H966      1.0  0.15699643611039474  0.25728325497848786  0.9237830966029668  1.0000
  H   H967      1.0  0.1038727288697683  0.2247456490126555  0.01027544180159515  1.0000
  H   H968      1.0  0.12686633981378487  0.22611864281076058  0.061825491603420324  1.0000
  H   H969      1.0  0.15062554110285475  0.31447887769519006  0.8853782244324943  1.0000
  H   H970      1.0  0.14242716287741475  0.2772857113621553  0.8786199481227707  1.0000
  H   H971      1.0  0.10216403486081613  0.26210169069219724  0.9891770461536386  1.0000
  H   H972      1.0  0.11149357832537046  0.29975305855988543  0.9942842777622896  1.0000
  H   H973      1.0  0.09163458146478162  0.19635635876473292  0.94450134896614  1.0000
  H   H974      1.0  0.052920167529134865  0.17189233224059344  0.9660183924799275  1.0000
  H   H975      1.0  0.03841637321463785  0.22144562839670467  0.940230646672699  1.0000
  H   H976      1.0  0.07537411847549144  0.24594232605594796  0.9186978789236633  1.0000
  H   H977      1.0  0.10072617186690892  0.24952846428252756  0.847520555648663  1.0000
  H   H978      1.0  0.10649369428652027  0.23972302108084964  0.7783339205560988  1.0000
  H   H979      1.0  0.13547403116820295  0.205203030078889  0.8293024566899709  1.0000
  H   H980      1.0  0.12749465959970935  0.21316952639252218  0.900668470787951  1.0000
  C   C1541     1.0  0.20826140893571654  0.20933500853660938  0.5348189789596205  1.0000
  C   C1542     1.0  0.18763644844373467  0.20007157893440325  0.5519961335448743  1.0000
  C   C1543     1.0  0.1781113838192753  0.21240320249058886  0.559723022745894  1.0000
  C   C1544     1.0  0.18944933286115348  0.23464506696333287  0.5556410112754326  1.0000
  C   C1545     1.0  0.20996519145204853  0.24388059763810163  0.5384324082196821  1.0000
  C   C1546     1.0  0.21913495007845094  0.23156367105748332  0.5267021287244429  1.0000
  H   H981      1.0  0.1777143435262034  0.18269949271006744  0.5589210867482302  1.0000
  H   H982      1.0  0.1616191793584264  0.20489080732729936  0.5714438676999842  1.0000
  H   H983      1.0  0.21821775416938569  0.26061042256162725  0.5305797251366762  1.0000
  H   H984      1.0  0.23523873478004179  0.23920707861366894  0.513320804528131  1.0000
  C   C1547     1.0  0.21279972729954616  0.282025443189668  0.5941402288573949  1.0000
  C   C1548     1.0  0.1939060837715587  0.27416143721981223  0.5710822102892732  1.0000
  C   C1549     1.0  0.18781721374404312  0.28905683929185505  0.5584273457614333  1.0000
  C   C1550     1.0  0.20000999806625364  0.3106132087491289  0.5668681152427261  1.0000
  C   C1551     1.0  0.21843635299997255  0.31803631215617045  0.5901934458100692  1.0000
  C   C1552     1.0  0.22517336048612985  0.3036945032720219  0.6025181013976945  1.0000
  C   C1553     1.0  0.17810011126363637  0.24850407602566568  0.5672014690299902  1.0000
  C   C1554     1.0  0.16836017975201187  0.24346922327001266  0.613484183059866  1.0000
  C   C1555     1.0  0.15271307512045512  0.24872687446474945  0.6243810780869448  1.0000
  C   C1556     1.0  0.1456098557280297  0.24728626298275586  0.6650848334507201  1.0000
  C   C1557     1.0  0.15500558295853517  0.24146941447473805  0.6959326381608548  1.0000
  C   C1558     1.0  0.17075224464540775  0.23660204255158454  0.6865106764000675  1.0000
  C   C1559     1.0  0.17775612456578258  0.2379927552512748  0.6460899572707617  1.0000
  C   C1560     1.0  0.16946758593588007  0.2501380745608489  0.4889608192814491  1.0000
  C   C1561     1.0  0.15494550274836794  0.24795585898192346  0.45755952149057394  1.0000
  C   C1562     1.0  0.1326922410779219  0.237212302215782  0.4645630958701712  1.0000
  C   C1563     1.0  0.12538874236706216  0.22762717394275475  0.5036189513799236  1.0000
  C   C1564     1.0  0.1396819359788147  0.22885052843036308  0.5332119621172432  1.0000
  C   C1565     1.0  0.1617773471391748  0.24204473823560296  0.5285638781778428  1.0000
  C   C1566     1.0  0.1162924423637039  0.23728813376635857  0.42995719893569045  1.0000
  C   C1567     1.0  0.13450837335068275  0.304876934234287  0.4620472182304416  1.0000
  C   C1568     1.0  0.14342880622666232  0.30062489393709435  0.4281803603526314  1.0000
  C   C1569     1.0  0.13730751105663802  0.27967724192432064  0.41638403906934923  1.0000
  C   C1570     1.0  0.12154677987015841  0.2618899004458771  0.43880050883934  1.0000
  C   C1571     1.0  0.11244320611401744  0.2664641962033286  0.4738089461961775  1.0000
  C   C1572     1.0  0.1194509954972436  0.28764996025818956  0.48592604187852523  1.0000
  C   C1573     1.0  0.09086475256613269  0.21891260978614235  0.43550156428424464  1.0000
  C   C1574     1.0  0.08446553016550057  0.19733180603621256  0.44535751493788533  1.0000
  C   C1575     1.0  0.06286184736589058  0.182030251009233  0.4532825295030336  1.0000
  C   C1576     1.0  0.04727687646159856  0.18774784309638584  0.4494395264083466  1.0000
  C   C1577     1.0  0.05324418051449019  0.20864743021697713  0.43533803223766215  1.0000
  C   C1578     1.0  0.0744629659138417  0.22365287650141427  0.42740358313136495  1.0000
  C   C1579     1.0  0.11243743951174004  0.23926547963049757  0.3493736381351512  1.0000
  C   C1580     1.0  0.11783381091747618  0.23748428508604888  0.3083575994593444  1.0000
  C   C1581     1.0  0.13192238068354784  0.230088449472836  0.3002511272194306  1.0000
  C   C1582     1.0  0.13721517716859918  0.22073557447563583  0.3324480713138702  1.0000
  C   C1583     1.0  0.13044024205535704  0.2210821826602062  0.37290023891367263  1.0000
  C   C1584     1.0  0.11985000057690184  0.23225115633245466  0.3824825878739928  1.0000
  H   H985      1.0  0.21815888049436521  0.2719234255995516  0.6069554805847677  1.0000
  H   H986      1.0  0.17239222974099633  0.283235789197765  0.5415866898104931  1.0000
  H   H987      1.0  0.19361037318340907  0.3210161006586773  0.5574367189407896  1.0000
  H   H988      1.0  0.23847814370779247  0.30945796551587923  0.6243779332398951  1.0000
  H   H989      1.0  0.14687585601199674  0.2550394143776836  0.6003953296391726  1.0000
  H   H990      1.0  0.13390141314247306  0.2519925584155299  0.673097903733259  1.0000
  H   H991      1.0  0.1794034751372262  0.2330036728300322  0.710622218729826  1.0000
  H   H992      1.0  0.19231203222590568  0.23664415419410054  0.6407122688158396  1.0000
  H   H993      1.0  0.1874918305782816  0.2595472713215413  0.4844007910594392  1.0000
  H   H994      1.0  0.16069128655799653  0.25618343808347843  0.4282652712229723  1.0000
  H   H995      1.0  0.10815246262949019  0.21931367178343047  0.5132107348813928  1.0000
  H   H996      1.0  0.132602602310028  0.22020552506761534  0.5629747945952444  1.0000
  H   H997      1.0  0.15642119660836556  0.3144309643513242  0.41043084360433907  1.0000
  H   H998      1.0  0.14506015729394764  0.2772682280269542  0.3886087499267344  1.0000
  H   H999      1.0  0.10033295958764779  0.2531802877906418  0.49224718444834586  1.0000
  H   H1000     1.0  0.11158874029992853  0.2901397459939317  0.5133459633045283  1.0000
  H   H1001     1.0  0.09684614341287377  0.19281652643532843  0.45033895266455  1.0000
  H   H1002     1.0  0.05915696895279418  0.16646496737672495  0.4639341264602388  1.0000
  H   H1003     1.0  0.04161630597131265  0.21422774122697366  0.43268063648069777  1.0000
  H   H1004     1.0  0.07857711804877761  0.24052583981545977  0.41698470485583466  1.0000
  H   H1005     1.0  0.10443538645700759  0.24845498089786439  0.3560532932686333  1.0000
  H   H1006     1.0  0.1127078363707828  0.24444126001037758  0.2837752735262513  1.0000
  H   H1007     1.0  0.14836443775239472  0.21450272688285543  0.3265986558014989  1.0000
  H   H1008     1.0  0.13476548481528436  0.21326567482245395  0.39665641352681946  1.0000
  C   C1585     1.0  0.1284996817820532  0.22018283346226167  0.7542160885322409  1.0000
  C   C1586     1.0  0.148505256649311  0.24192319111246519  0.7401020149733577  1.0000
  H   H1009     1.0  0.1324679033464443  0.20704338493271568  0.7522882972907979  1.0000
  H   H1010     1.0  0.11445477701687254  0.21514243140234807  0.7329380533942277  1.0000
  H   H1011     1.0  0.14572660071300714  0.25602563699183123  0.7429984191060965  1.0000
  H   H1012     1.0  0.16194423879617315  0.24610965581932767  0.76250590535515  1.0000
  C   C1587     1.0  0.13101183456942386  0.21792210586951416  0.2252094158898057  1.0000
  C   C1588     1.0  0.1438898042356087  0.23524397354801685  0.258972179330272  1.0000
  H   H1013     1.0  0.12838295931440225  0.20142572625496452  0.23346684078810323  1.0000
  H   H1014     1.0  0.11439725513436817  0.21522516703807731  0.22367630295309546  1.0000
  H   H1015     1.0  0.14726619329090204  0.25213989309308193  0.24971374961606707  1.0000
  H   H1016     1.0  0.16006682077210907  0.23633458052632295  0.2627997726744157  1.0000
  C   C1589     1.0  0.12481049145055238  0.33891197704926557  0.9027189110643306  1.0000
  C   C1590     1.0  0.13661972065178365  0.33353966650065825  0.9379915155733396  1.0000
  H   H1017     1.0  0.10908683789583144  0.33641920735077885  0.9130623130106689  1.0000
  H   H1018     1.0  0.12118779658192583  0.32766354401634296  0.8756889506724855  1.0000
  H   H1019     1.0  0.15477176478765464  0.3438671412973278  0.9370606408466398  1.0000
  H   H1020     1.0  0.13234718999577272  0.33800385984609743  0.9688298857423252  1.0000
  C   C1591     1.0  0.2300613953277918  0.3413818295414799  0.6041911600281147  1.0000
  C   C1592     1.0  0.22603195380924138  0.34299809776816864  0.6521563672295597  1.0000
  H   H1021     1.0  0.24724882739197715  0.3486145805201478  0.5964925744505422  1.0000
  H   H1022     1.0  0.2242157408596926  0.35094759070117826  0.5863410081742332  1.0000
  H   H1023     1.0  0.23443684243062607  0.33630075568097834  0.6708713520220982  1.0000
  H   H1024     1.0  0.2086471398328772  0.3307825287183046  0.6603769974173761  1.0000
  C   C1593     1.0  0.24305880180492365  0.46627660031585444  0.5205287939659563  1.0000
  C   C1594     1.0  0.2368847038920532  0.4451653861911892  0.5424074948904549  1.0000
  H   H1025     1.0  0.2611778834800921  0.4779189872799663  0.5195004289807169  1.0000
  H   H1026     1.0  0.23555052052935277  0.47406110157737646  0.5386777062895558  1.0000
  H   H1027     1.0  0.21956448437047224  0.43382045132911834  0.5376367619161176  1.0000
  H   H1028     1.0  0.2457842391491346  0.43815811285753165  0.526617217854102  1.0000
  C   C1595     1.0  0.24027464988567346  0.46117803243350264  0.05724848120734224  1.0000
  C   C1596     1.0  0.22304959341927433  0.4395214776458012  0.0361135366100887  1.0000
  H   H1029     1.0  0.2554768986717191  0.46987806220510964  0.039263100930325215  1.0000
  H   H1030     1.0  0.2342948931517674  0.4726609423377098  0.058222440338622554  1.0000
  H   H1031     1.0  0.20756056073235823  0.4330414739884043  0.0536089497167684  1.0000
  H   H1032     1.0  0.22705085107542697  0.4261102271166582  0.039802442199342244  1.0000
  C   C1597     1.0  0.1301416257335423  0.337763521846742  0.44444550929348337  1.0000
  C   C1598     1.0  0.14185658416925465  0.32861642714459977  0.47253213829401475  1.0000
  H   H1033     1.0  0.12037272516212912  0.3263460298732782  0.4200697998115531  1.0000
  H   H1034     1.0  0.11835826393764652  0.3391975781171309  0.46422659723585735  1.0000
  H   H1035     1.0  0.13941007119018772  0.3306944072979783  0.5058046200794388  1.0000
  H   H1036     1.0  0.1595608301154121  0.3384536383124496  0.4677739847078761  1.0000
  C   C1599     1.0  0.22242686938355286  0.33952690825470705  0.16196717069051264  1.0000
  C   C1600     1.0  0.22980211653814467  0.3378709064686501  0.11783112925673613  1.0000
  H   H1037     1.0  0.20481727203508596  0.3288608028416059  0.1657450754512716  1.0000
  H   H1038     1.0  0.22910615231832562  0.3327312183857255  0.18460723908573437  1.0000
  H   H1039     1.0  0.24729601281431698  0.34398986769045603  0.11761979553499884  1.0000
  H   H1040     1.0  0.22820187978040826  0.3496186154588947  0.09762045520737828  1.0000
  C   C1601     1.0  0.21207932638735966  0.19225512839332573  0.9558259431919729  1.0000
  C   C1602     1.0  0.21162807842256173  0.19471068949758552  0.004404395568101904  1.0000
  H   H1041     1.0  0.2164402175736576  0.2078699068627314  0.9407558361299926  1.0000
  H   H1042     1.0  0.19518893876289267  0.18011022414100436  0.9453284437402011  1.0000
  H   H1043     1.0  0.22790292235839585  0.20280718372116405  0.018051453513530425  1.0000
  H   H1044     1.0  0.20346335820890535  0.17847596820545655  0.01970397629271632  1.0000
  C   C1603     1.0  0.2188972281879069  0.19520183066102212  0.5274789059457093  1.0000
  C   C1604     1.0  0.22303300080954858  0.19242770278790106  0.4813282754919194  1.0000
  H   H1045     1.0  0.20872546270466383  0.1783389869911807  0.5419986647739988  1.0000
  H   H1046     1.0  0.23449997085418015  0.20215653348089296  0.5443321412848481  1.0000
  H   H1047     1.0  0.23142608067882742  0.20894032976032573  0.46675505426378566  1.0000
  H   H1048     1.0  0.20707143676452217  0.18298775879488652  0.46603173944236337  1.0000
  C   C1605     1.0  0.24082328502458494  0.10963661383774531  0.7107511574588622  1.0000
  C   C1606     1.0  0.26275168776518143  0.13005015096510786  0.7215694313096995  1.0000
  H   H1049     1.0  0.22764339366128605  0.11351755304077307  0.7120562689844719  1.0000
  H   H1050     1.0  0.2374327490994056  0.09711634441770789  0.734796658000578  1.0000
  H   H1051     1.0  0.2760654893477015  0.12706757065971303  0.7140343777787093  1.0000
  H   H1052     1.0  0.2652473620567321  0.14278130761585198  0.6997033097733996  1.0000
  C   C1607     1.0  0.251856621306548  0.123004044295597  0.2407330098963473  1.0000
  C   C1608     1.0  0.27099745222663774  0.13564841697009472  0.20987765755329346  1.0000
  H   H1053     1.0  0.2376775033756355  0.12412241899066703  0.22959521958526433  1.0000
  H   H1054     1.0  0.24683267891007513  0.105586252332694  0.23998799563028236  1.0000
  H   H1055     1.0  0.2863985015409182  0.13780676222863328  0.22365020072258326  1.0000
  H   H1056     1.0  0.2740996489838871  0.15277744666414725  0.20701301637575634  1.0000
  C   C1609     1.0  0.3677060860816551  0.1284747265656714  0.5213936269046133  1.0000
  C   C1610     1.0  0.3535456258251512  0.10672830097963774  0.5444044727669903  1.0000
  H   H1057     1.0  0.3676922353363153  0.1245634603396787  0.4875959556618958  1.0000
  H   H1058     1.0  0.35961465551304284  0.13856201485325245  0.5218150364092681  1.0000
  H   H1059     1.0  0.35923549279890554  0.10756512187850636  0.5783373724328433  1.0000
  H   H1060     1.0  0.355877378167218  0.09371209235711019  0.5299444660326443  1.0000
  C   C1611     1.0  0.3648068793526868  0.2158105127237508  0.7965142813501949  1.0000
  C   C1612     1.0  0.3638731071957202  0.22508858053130334  0.8397968112946931  1.0000
  H   H1061     1.0  0.3548886063016507  0.21895901321670175  0.7741072461213531  1.0000
  H   H1062     1.0  0.35578820341120576  0.19767714371607562  0.7969419805489489  1.0000
  H   H1063     1.0  0.36831211517701257  0.2426352287704876  0.837843861276853  1.0000
  H   H1064     1.0  0.3753947711407845  0.22467628203417467  0.8625969524047425  1.0000
  C   C1613     1.0  0.4647823386308886  0.22285861961904316  0.8984513536179392  1.0000
  C   C1614     1.0  0.4847372706946714  0.23630411821149833  0.926682645582755  1.0000
  H   H1065     1.0  0.460693021036803  0.20580081980288967  0.8974607267972957  1.0000
  H   H1066     1.0  0.451158027600388  0.2230025828624355  0.9155750458033488  1.0000
  H   H1067     1.0  0.4895487525928307  0.2536476022081643  0.9257580605501544  1.0000
  H   H1068     1.0  0.49928186173522904  0.2367786248292639  0.913600081856161  1.0000
  C   C1615     1.0  0.49497099684609513  0.24567116497993297  0.3949739203552503  1.0000
  C   C1616     1.0  0.49130501757963807  0.25593233526970277  0.43596700164759455  1.0000
  H   H1069     1.0  0.49126998620432516  0.22929074541109248  0.402597029603631  1.0000
  H   H1070     1.0  0.5125471693919603  0.2544881697108699  0.38812129863403677  1.0000
  H   H1071     1.0  0.5063315866639445  0.2715976922043305  0.4453889634083819  1.0000
  H   H1072     1.0  0.47995997529774787  0.2620112768213514  0.4286426528689318  1.0000
  C   C1617     1.0  0.371133485598559  0.12311605914256518  0.03636952715993119  1.0000
  C   C1618     1.0  0.3612684833255647  0.1305309497607674  0.0003443980269883795  1.0000
  H   H1073     1.0  0.37250337795318833  0.10906407427292664  0.026994926795711728  1.0000
  H   H1074     1.0  0.3600354575109195  0.11730382834435042  0.06403474665580788  1.0000
  H   H1075     1.0  0.37105836866479525  0.14878099474647663  0.9965076846264006  1.0000
  H   H1076     1.0  0.3632808236244721  0.12407636549421287  0.9691286462120432  1.0000
  C   C1619     1.0  0.36407801540334994  0.21169558433446162  0.31001776421686095  1.0000
  C   C1620     1.0  0.3637537561331527  0.21485779133473645  0.35744646051163353  1.0000
  H   H1077     1.0  0.35565209734450354  0.218810779579445  0.29326642192213126  1.0000
  H   H1078     1.0  0.35441118584275233  0.1936458050748691  0.3030840054417661  1.0000
  H   H1079     1.0  0.3758300580265686  0.21089115386859203  0.37064223873201535  1.0000
  H   H1080     1.0  0.37010279353068865  0.2325251090607108  0.3656324973819038  1.0000
  C   C1621     1.0  0.014132692825339336  0.18501859920777425  0.006146640833614603  1.0000
  C   C1622     1.0  0.01962412075488696  0.17993764247811941  0.9627320273130306  1.0000
  H   H1081     1.0  0.021344645572440805  0.20290837085582994  0.010332432256714874  1.0000
  H   H1082     1.0  0.0234871474749152  0.1815334368623161  0.030024137819357664  1.0000
  H   H1083     1.0  0.009452940231655738  0.18180942570008357  0.9389098109118409  1.0000
  H   H1084     1.0  0.015563464425872253  0.16284764299593282  0.9586688849248672  1.0000
  C   C1623     1.0  0.017555299092584672  0.1704931366835555  0.5053014445514928  1.0000
  C   C1624     1.0  0.02307046559264459  0.171653231396253  0.45804382793622184  1.0000
  H   H1085     1.0  0.02680881931899114  0.1861951025470349  0.520075935990805  1.0000
  H   H1086     1.0  0.0224957972858366  0.16015266590125313  0.5203589722252745  1.0000
  H   H1087     1.0  0.012898772976905644  0.17699487502762112  0.44060565104584604  1.0000
  H   H1088     1.0  0.0184827434397913  0.15521158425795795  0.4461908994060458  1.0000
  C   C1625     1.0  0.9025291342417099  0.09265821328022915  0.717257846004613  1.0000
  C   C1626     1.0  0.8963787239373984  0.10703968515569105  0.7427940040478684  1.0000
  H   H1089     1.0  0.8886300734462181  0.0754532859196269  0.7160722386668903  1.0000
  H   H1090     1.0  0.9168669288862348  0.09240765516258272  0.7312555602226586  1.0000
  H   H1091     1.0  0.9105958987618216  0.12369915434180391  0.7418977226387148  1.0000
  H   H1092     1.0  0.8833110687372515  0.1090611179600733  0.7279786295969106  1.0000
  C   C1627     1.0  0.9081182247836775  0.09923078080742674  0.22006507508596856  1.0000
  C   C1628     1.0  0.8959672123062161  0.11041284109029645  0.23889201643347516  1.0000
  H   H1093     1.0  0.8985997356638709  0.08111833154686166  0.22157051336864178  1.0000
  H   H1094     1.0  0.922476884882938  0.10263730689333396  0.23865112114947104  1.0000
  H   H1095     1.0  0.8813598951501702  0.10673814071996757  0.21828603510997477  1.0000
  H   H1096     1.0  0.9062004231908719  0.12825617736127956  0.23532450194033855  1.0000
  C   C1629     1.0  0.9071114973790663  0.21235731675129185  0.6475743250782021  1.0000
  C   C1630     1.0  0.9201090424704982  0.21282167059544568  0.6086945810032307  1.0000
  H   H1097     1.0  0.9177004281187983  0.2251160594438925  0.6701983547534707  1.0000
  H   H1098     1.0  0.9013071016176748  0.19747071893995827  0.665012501968578  1.0000
  H   H1099     1.0  0.9373965068227178  0.22462785562430154  0.6151603865373358  1.0000
  H   H1100     1.0  0.9177455167792021  0.22097731168476603  0.5816960690818824  1.0000
  C   C1631     1.0  0.7934771109192935  0.10473159471150108  0.8124838146683785  1.0000
  C   C1632     1.0  0.7975162301890619  0.10911303093730822  0.8595338713783718  1.0000
  H   H1101     1.0  0.7813435348426216  0.08741829632116864  0.806533764050418  1.0000
  H   H1102     1.0  0.8088078828195211  0.10783788652951681  0.798121298192572  1.0000
  H   H1103     1.0  0.7810001747003561  0.1003304583613177  0.8746888893106931  1.0000
  H   H1104     1.0  0.8050133306407616  0.12704351240342548  0.86662235662831  1.0000
  C   C1633     1.0  0.7701404641635712  0.18813663579241474  0.9371612759522289  1.0000
  C   C1634     1.0  0.7735832539956855  0.20507919285457343  0.9036560754851298  1.0000
  H   H1105     1.0  0.7529988862597289  0.17623727491795943  0.9404193374956787  1.0000
  H   H1106     1.0  0.7775886589829828  0.1781167534290346  0.9272707319810418  1.0000
  H   H1107     1.0  0.7898106978182134  0.22022148722697993  0.9069392958049769  1.0000
  H   H1108     1.0  0.7619440416082751  0.2107254458877323  0.9080242680371103  1.0000
  C   C1635     1.0  0.795462376911989  0.21907684124966845  0.41176111390634607  1.0000
  C   C1636     1.0  0.7985387027647516  0.20256388946708773  0.4387753500629427  1.0000
  H   H1109     1.0  0.8110785124807262  0.23425083739253505  0.4078426344824672  1.0000
  H   H1110     1.0  0.7846473721913376  0.22455745106543232  0.4251109896321613  1.0000
  H   H1111     1.0  0.7828378932646933  0.18742256034922236  0.4432473225675621  1.0000
  H   H1112     1.0  0.8087037637593382  0.19650010837687112  0.4217145548185264  1.0000
  C   C1637     1.0  0.8782632350299687  0.1972254600462769  0.13035170881555547  1.0000
  C   C1638     1.0  0.8958815624170822  0.20515734292098753  0.09548541854536273  1.0000
  H   H1113     1.0  0.8865844071221916  0.20440223655995463  0.16019159004627345  1.0000
  H   H1114     1.0  0.8699372342730909  0.17923678836948365  0.1356048613273109  1.0000
  H   H1115     1.0  0.9109299118719916  0.22046566496122166  0.10475800007129117  1.0000
  H   H1116     1.0  0.890493233805552  0.2103907022955065  0.06652232067209053  1.0000
  C   C1639     1.0  0.7893102233845661  0.11090598101545551  0.3169942929118311  1.0000
  C   C1640     1.0  0.79788288066784  0.11606050932408195  0.36330531056515386  1.0000
  H   H1117     1.0  0.7772107425322509  0.09356040496271398  0.3143928754323507  1.0000
  H   H1118     1.0  0.8027653914733103  0.11231268775031009  0.29670468320152676  1.0000
  H   H1119     1.0  0.805982841986189  0.13391638066522482  0.36839052824445734  1.0000
  H   H1120     1.0  0.7838596372233405  0.10836691202356742  0.38559913130020784  1.0000
  C   C1641     1.0  0.15466093831800412  0.48144554938551065  0.7950393480839033  1.0000
  C   C1642     1.0  0.1403073602757521  0.4847166074324676  0.8279407379174673  1.0000
  H   H1121     1.0  0.16797467250532183  0.4976053050276278  0.786334411450439  1.0000
  H   H1122     1.0  0.1457650584383572  0.47409636899889657  0.7661161897681619  1.0000
  H   H1123     1.0  0.1505136998212786  0.49545815066828575  0.8544738124754657  1.0000
  H   H1124     1.0  0.12857427854167974  0.46927016418938966  0.8429573825796034  1.0000
  C   C1643     1.0  0.13369982601505387  0.4563835994343979  0.31294467336598136  1.0000
  C   C1644     1.0  0.13628895642749467  0.46395094594636765  0.2673230061859445  1.0000
  H   H1125     1.0  0.11616345991345249  0.44301463877538644  0.3171200867938176  1.0000
  H   H1126     1.0  0.13690887445604136  0.46975237052455787  0.3355237317284397  1.0000
  H   H1127     1.0  0.15282121021814066  0.4762392474066529  0.25993701840510836  1.0000
  H   H1128     1.0  0.1322949812005853  0.4505515267757592  0.24432411074235633  1.0000
  C   C1645     1.0  0.10789091111473251  0.5586139486514325  0.6001122934047031  1.0000
  C   C1646     1.0  0.1170094817575787  0.5500776117202841  0.5650661178832697  1.0000
  H   H1129     1.0  0.11658687139256588  0.5768365537119358  0.6011406583899427  1.0000
  H   H1130     1.0  0.09139477408940225  0.5553296003414288  0.5916778136175096  1.0000
  H   H1131     1.0  0.11300710302975842  0.533118544777021  0.5682738618739249  1.0000
  H   H1132     1.0  0.13483639949445284  0.5583750063300054  0.5658334605633872  1.0000
  C   C1647     1.0  0.10191562827262234  0.5421731117796368  0.08790979648743193  1.0000
  C   C1648     1.0  0.08483861564387875  0.5484856164451242  0.07931933228657519  1.0000
  H   H1133     1.0  0.11863344263631001  0.55630753687542  0.08598389215421891  1.0000
  H   H1134     1.0  0.10055043318924642  0.5304029014686672  0.06260792954937623  1.0000
  H   H1135     1.0  0.08559313309942615  0.5603964421612978  0.10288681607674226  1.0000
  H   H1136     1.0  0.06808062503915613  0.5343912632290061  0.08438190706712108  1.0000
  C   C1649     1.0  0.857205505563801  0.3201580225029495  0.6176070775419729  1.0000
  C   C1650     1.0  0.8576513221080092  0.32757474280104226  0.6638143152426568  1.0000
  H   H1137     1.0  0.8728566668986024  0.3309881766077876  0.6020086361756494  1.0000
  H   H1138     1.0  0.8458521344867392  0.32330991989449404  0.6003796054039244  1.0000
  H   H1139     1.0  0.8671881792139908  0.3223165844987412  0.6818437233783691  1.0000
  H   H1140     1.0  0.8417541929709076  0.31925644536286474  0.6791517343038583  1.0000
  C   C1651     1.0  0.9835886298099957  0.449330199323799  0.7547035398249384  1.0000
  C   C1652     1.0  0.9943395785582615  0.4666811027110553  0.7888943169488638  1.0000
  H   H1141     1.0  0.9933315792117864  0.45206675106345595  0.7266860974594996  1.0000
  H   H1142     1.0  0.9816962264867495  0.43370857283115927  0.7656727663341596  1.0000
  H   H1143     1.0  0.9891212506093504  0.4587498003201199  0.8199685506465741  1.0000
  H   H1144     1.0  0.9875263587533687  0.47809600383872136  0.7878282137990285  1.0000
  C   C1653     1.0  0.00048272062119004397  0.5424136970222155  0.45088615605119114  1.0000
  C   C1654     1.0  0.9964044590020668  0.5370223236199226  0.49776953586755235  1.0000
  H   H1145     1.0  0.997587138551544  0.555921394086682  0.4426089186164807  1.0000
  H   H1146     1.0  0.98781543297155  0.5275209509239045  0.43365239421904334  1.0000
  H   H1147     1.0  0.00361564391857187  0.5525842522251008  0.5161920498844724  1.0000
  H   H1148     1.0  0.005471107061742342  0.5289898661365589  0.5083928292013107  1.0000
  C   C1655     1.0  0.8436747920503372  0.32328265148064816  0.13891135351532555  1.0000
  C   C1656     1.0  0.8354432218583602  0.3139420551727385  0.09435924881687878  1.0000
  H   H1149     1.0  0.8542044529846224  0.31700616158381084  0.14865251725165363  1.0000
  H   H1150     1.0  0.83072640814255  0.31581280384789473  0.1626216133615473  1.0000
  H   H1151     1.0  0.8481654658291642  0.3232897819806321  0.0723500367398192  1.0000
  H   H1152     1.0  0.8216702535360136  0.3162864680345365  0.08647354483985129  1.0000
  C   C1657     1.0  0.8839228507941331  0.44546186221405665  0.8758053100133231  1.0000
  C   C1658     1.0  0.8618254043771199  0.4361765983653954  0.8528384920096415  1.0000
  H   H1153     1.0  0.8884502926713425  0.4332533971936173  0.8739498502540225  1.0000
  H   H1154     1.0  0.8966498507335656  0.4595136647978059  0.8581815871470172  1.0000
  H   H1155     1.0  0.8562278316414577  0.44832247318666973  0.8528322023155421  1.0000
  H   H1156     1.0  0.848763138095729  0.42129633565814506  0.8690627579388477  1.0000
  C   C1659     1.0  0.8876740704018338  0.4475973107091769  0.3698874754400964  1.0000
  C   C1660     1.0  0.8651510822239882  0.43748141573090604  0.3470464513184013  1.0000
  H   H1157     1.0  0.8998648486058712  0.46351395765980524  0.3556947807049718  1.0000
  H   H1158     1.0  0.8940205584680978  0.4366106544029976  0.36512932185395786  1.0000
  H   H1159     1.0  0.8593341719645198  0.4493481766583656  0.34896480801869506  1.0000
  H   H1160     1.0  0.8535279624726518  0.42357013548513706  0.36518592910085174  1.0000
  C   C1661     1.0  0.9748851004424838  0.4256226716485153  0.24806081800676474  1.0000
  C   C1662     1.0  0.9859311310460644  0.44172617982763696  0.28478822876094745  1.0000
  H   H1161     1.0  0.9702640771494816  0.40897896841379966  0.25799507535194205  1.0000
  H   H1162     1.0  0.9866393831354868  0.4299798616275578  0.22102771276787012  1.0000
  H   H1163     1.0  0.9840919194874734  0.4325300516686606  0.3146010643070383  1.0000
  H   H1164     1.0  0.9776621206434079  0.45089218616917065  0.29069016321904817  1.0000
  C   C1663     1.0  0.9941387185093887  0.554439344427736  0.9527691518597013  1.0000
  C   C1664     1.0  0.9913004271024293  0.5475716315804854  0.999360060900444  1.0000
  H   H1165     1.0  0.990079915615221  0.567348769954959  0.9480676055204567  1.0000
  H   H1166     1.0  0.982809409256282  0.5403030894223629  0.933513253374621  1.0000
  H   H1167     1.0  0.9985249361480103  0.5628314801436325  0.01933319882556117  1.0000
  H   H1168     1.0  0.0024463547317911073  0.5416193490104539  0.004646548790925742  1.0000
  C   C1665     1.0  0.9292794099320816  0.7870803794082547  0.6900391947897883  1.0000
  C   C1666     1.0  0.9190133768410274  0.7665871318986983  0.7180660716963762  1.0000
  H   H1169     1.0  0.9312961237273524  0.8017084397301693  0.7073830262686742  1.0000
  H   H1170     1.0  0.9460807018847722  0.7913116164751739  0.6824097958473082  1.0000
  H   H1171     1.0  0.9236559305433002  0.7551084738102459  0.7048797280171432  1.0000
  H   H1172     1.0  0.9013097298745236  0.7572459018174899  0.7120971519961176  1.0000
  C   C1667     1.0  0.9166002202827567  0.7961659747073555  0.21251020901856554  1.0000
  C   C1668     1.0  0.9177512689613458  0.7764868344075525  0.23008172742384705  1.0000
  H   H1173     1.0  0.9324042998051822  0.8119080831467111  0.2167504062956248  1.0000
  H   H1174     1.0  0.9057748780384435  0.7989079337251442  0.23317248310425487  1.0000
  H   H1175     1.0  0.9027230576295029  0.7611768391983074  0.22022546228550133  1.0000
  H   H1176     1.0  0.9304725700511708  0.7751540945021066  0.21254700372904659  1.0000
  C   C1669     1.0  0.8603636363443319  0.5248316062203568  0.6664528419173232  1.0000
  C   C1670     1.0  0.8562055642817183  0.5203177365598021  0.6188555818206887  1.0000
  H   H1177     1.0  0.8775670059444899  0.5302035634366776  0.6738558118722275  1.0000
  H   H1178     1.0  0.8513109643464603  0.5094729754675813  0.6835702444086335  1.0000
  H   H1179     1.0  0.8612225542501847  0.5360151374467018  0.6012224244132338  1.0000
  H   H1180     1.0  0.838818293242662  0.5095721468050783  0.6120249740288228  1.0000
  C   C1671     1.0  0.8027212975539045  0.6807749089428851  0.6629777859274466  1.0000
  C   C1672     1.0  0.7938815780299037  0.6914261814336621  0.6323406859696393  1.0000
  H   H1181     1.0  0.7978521461873157  0.6810935503272985  0.6965270142532409  1.0000
  H   H1182     1.0  0.8208007081490892  0.6909668007826039  0.6621129529887896  1.0000
  H   H1183     1.0  0.7849680042189395  0.6978986807572279  0.6493197151907645  1.0000
  H   H1184     1.0  0.7821270998337524  0.679233082491837  0.6101663694224726  1.0000
  C   C1673     1.0  0.91001465877578  0.6733410986196751  0.8082539953865832  1.0000
  C   C1674     1.0  0.9085043968891013  0.674850485144663  0.8565965842339875  1.0000
  H   H1185     1.0  0.9263865987429849  0.6768173870760924  0.7980489667104299  1.0000
  H   H1186     1.0  0.9085090048461414  0.686872887136803  0.7941147630513028  1.0000
  H   H1187     1.0  0.9167763629577665  0.6667645351050756  0.8708144377455095  1.0000
  H   H1188     1.0  0.8911257201722291  0.6644790244214657  0.8650090500918335  1.0000
  C   C1675     1.0  0.8434337201099681  0.5062983797885791  0.17815212603159813  1.0000
  C   C1676     1.0  0.8464614507671837  0.5085817224978497  0.1289893610736419  1.0000
  H   H1189     1.0  0.8306685261110789  0.489584193181991  0.1851830605805275  1.0000
  H   H1190     1.0  0.8580766072506506  0.5088594948754596  0.1950748624905344  1.0000
  H   H1191     1.0  0.8533166407590729  0.5257424564420768  0.11795377829167296  1.0000
  H   H1192     1.0  0.8302455374325541  0.5002857383081165  0.11387711306119609  1.0000
  C   C1677     1.0  0.8171929418333312  0.5667415773726514  0.9279877571083648  1.0000
  C   C1678     1.0  0.7978701974698494  0.5433114644823674  0.9369788748233485  1.0000
  H   H1193     1.0  0.832293072646933  0.5700047378287033  0.9444384520251468  1.0000
  H   H1194     1.0  0.8147819992353242  0.5797038434516434  0.9411489420112003  1.0000
  H   H1195     1.0  0.7851379121008857  0.5375968037213404  0.9115999591325761  1.0000
  H   H1196     1.0  0.8035220086553636  0.5312818043248819  0.9370103232938451  1.0000
  C   C1679     1.0  0.7826024573701212  0.5612050060256956  0.41405685225259936  1.0000
  C   C1680     1.0  0.8000402481916685  0.5810178289900213  0.4385552107694664  1.0000
  H   H1197     1.0  0.7669127962392894  0.5612112460757697  0.4122391306578947  1.0000
  H   H1198     1.0  0.7789947697862668  0.545922103661338  0.42963013484252566  1.0000
  H   H1199     1.0  0.8149459646332908  0.5804961120349094  0.4363097899760077  1.0000
  H   H1200     1.0  0.8032221991928551  0.5960264872429136  0.42261083622768003  1.0000
  C   C1681     1.0  0.8031020662698114  0.6601509182726827  0.05534176044113216  1.0000
  C   C1682     1.0  0.8251276021438556  0.6716290880308073  0.030694776452698087  1.0000
  H   H1201     1.0  0.7903957178223019  0.6622708775790184  0.03763375567389532  1.0000
  H   H1202     1.0  0.8048532398060297  0.6692760285153855  0.08464009900989833  1.0000
  H   H1203     1.0  0.8211094538523716  0.6675039187136608  0.9963567319680169  1.0000
  H   H1204     1.0  0.8351583748710593  0.6640478400407169  0.038939810653619955  1.0000
  C   C1683     1.0  0.8891453856852313  0.657510564963944  0.30237955970264185  1.0000
  C   C1684     1.0  0.8828096128564479  0.6592789047849609  0.34747100567010564  1.0000
  H   H1205     1.0  0.8895293137114529  0.6702612908201182  0.282261344156544  1.0000
  H   H1206     1.0  0.9056674041798409  0.6596827747421953  0.30289908843524604  1.0000
  H   H1207     1.0  0.889690059143557  0.6518599235556785  0.36781187638731955  1.0000
  H   H1208     1.0  0.8645696152147949  0.6496307084099933  0.351971281798172  1.0000
  C   C1685     1.0  0.5039625172648584  0.3354640804453754  0.6694593156968001  1.0000
  C   C1686     1.0  0.5047889339112788  0.3398995357301259  0.6212236516490841  1.0000
  H   H1209     1.0  0.49733519384472363  0.34454554914370333  0.6869572446811195  1.0000
  H   H1210     1.0  0.5211595606161503  0.34365280163207756  0.6796800686082016  1.0000
  H   H1211     1.0  0.4896557301390507  0.328851183564278  0.6046440180032661  1.0000
  H   H1212     1.0  0.5158723257171605  0.3358148746682264  0.6058013217175418  1.0000
  C   C1687     1.0  0.6810446184986823  0.5197535110326642  0.6748244247635234  1.0000
  C   C1688     1.0  0.6872049377251055  0.5257300899023013  0.6277963819828778  1.0000
  H   H1213     1.0  0.6903017378260605  0.5335110480030224  0.6960678665839903  1.0000
  H   H1214     1.0  0.6846469510072286  0.5064534037413487  0.6824758376353511  1.0000
  H   H1215     1.0  0.6823321253062329  0.510442388173464  0.6108802497027459  1.0000
  H   H1216     1.0  0.6765499657526767  0.5317440367920219  0.6149182333145119  1.0000
  C   C1689     1.0  0.4812211170580196  0.33781896198761563  0.11968312968428209  1.0000
  C   C1690     1.0  0.4878284044537328  0.3360244998645057  0.16420158451929748  1.0000
  H   H1217     1.0  0.4629835195612574  0.3290860858063526  0.11765030055138057  1.0000
  H   H1218     1.0  0.4860176190650801  0.3285535472178911  0.09850478619774322  1.0000
  H   H1219     1.0  0.48219921955579564  0.3445437231162782  0.18585920269620484  1.0000
  H   H1220     1.0  0.5058407070102933  0.3452195842078896  0.1665517287195099  1.0000
  C   C1691     1.0  0.6682072466739345  0.5215716214748995  0.15749677060941808  1.0000
  C   C1692     1.0  0.6748453475708356  0.518885005497913  0.11277138483853494  1.0000
  H   H1221     1.0  0.6743723142317036  0.5389130249822525  0.1638355243227168  1.0000
  H   H1222     1.0  0.6765300309932144  0.5164032875793196  0.18061139642443383  1.0000
  H   H1223     1.0  0.668304667447744  0.501276178169635  0.1078701407116367  1.0000
  H   H1224     1.0  0.6668258478563943  0.5244737899630746  0.09024390196769107  1.0000
  C   C1693     1.0  0.5531458611165029  0.44128494217111436  0.8795571125435698  1.0000
  C   C1694     1.0  0.5770002353147093  0.4477065549327757  0.8696539891841842  1.0000
  H   H1225     1.0  0.541976196825324  0.42720552995653366  0.8595873337782162  1.0000
  H   H1226     1.0  0.5496498301223872  0.4545420168697308  0.8700187914419449  1.0000
  H   H1227     1.0  0.5880754820492059  0.4603722367261163  0.8923409158004459  1.0000
  H   H1228     1.0  0.5809131069239998  0.4343411112073154  0.8727736774574489  1.0000
  C   C1695     1.0  0.5413572927353643  0.44385788200112414  0.38644824000361655  1.0000
  C   C1696     1.0  0.5491335985619029  0.42972076819428073  0.3634688426117363  1.0000
  H   H1229     1.0  0.5255062995440841  0.4400860311482624  0.37229642828013754  1.0000
  H   H1230     1.0  0.5528759133360169  0.46142045735499493  0.38035038157432194  1.0000
  H   H1231     1.0  0.5359317353860511  0.4121000528324928  0.36469218811405485  1.0000
  H   H1232     1.0  0.5628455557665154  0.4302965091762562  0.3811365933367375  1.0000
  C   C1697     1.0  0.3368461392095967  0.4875056897891953  0.7868627457547822  1.0000
  C   C1698     1.0  0.3369145852285871  0.4869335050196142  0.8349191535206673  1.0000
  H   H1233     1.0  0.3435576885795232  0.5050183090923905  0.77646273656155  1.0000
  H   H1234     1.0  0.3484563918223811  0.4828076366498125  0.7725945746904657  1.0000
  H   H1235     1.0  0.32488260658074253  0.4708039093237037  0.8484388509871643  1.0000
  H   H1236     1.0  0.3311880875298097  0.4980040570945114  0.847259533343541  1.0000
  C   C1699     1.0  0.4565416127574717  0.4565558110222308  0.9459542683030838  1.0000
  C   C1700     1.0  0.4614493884704036  0.45940993704010136  0.9937622331520456  1.0000
  H   H1237     1.0  0.44554679288068505  0.43939918579985193  0.937309083763563  1.0000
  H   H1238     1.0  0.4719561043155643  0.46156298795134054  0.9288211415765253  1.0000
  H   H1239     1.0  0.44618725989140984  0.45214322354887276  0.010375699525538375  1.0000
  H   H1240     1.0  0.4695984838601038  0.4772221657802975  0.0017124064935911676  1.0000
  C   C1701     1.0  0.5423264357039681  0.5466861855055863  0.7606630249840479  1.0000
  C   C1702     1.0  0.549773289948721  0.5436219389064009  0.7160219211140958  1.0000
  H   H1241     1.0  0.5568719202502278  0.5573010224375804  0.7795163830467716  1.0000
  H   H1242     1.0  0.5326258445537003  0.5305234605031193  0.7763212184443151  1.0000
  H   H1243     1.0  0.5360723655388691  0.5355082669468487  0.6931777521453508  1.0000
  H   H1244     1.0  0.561437242956758  0.5597460551208417  0.702873315599459  1.0000
  C   C1703     1.0  0.3347236639026257  0.4740254178556668  0.3476156686343901  1.0000
  C   C1704     1.0  0.33469469089923487  0.47338504155167593  0.29941082408776093  1.0000
  H   H1245     1.0  0.32367365755410443  0.4573054150840104  0.3594654523175166  1.0000
  H   H1246     1.0  0.3281491887110181  0.48449301806080664  0.35961640497590036  1.0000
  H   H1247     1.0  0.34448744542109605  0.4903440331197046  0.2876170186821184  1.0000
  H   H1248     1.0  0.3419893513005856  0.4642247924876562  0.2869575442558043  1.0000
  C   C1705     1.0  0.43300703877134394  0.5309566141948063  0.5913130113597489  1.0000
  C   C1706     1.0  0.43730382098711823  0.554292888109038  0.5975209394357817  1.0000
  H   H1249     1.0  0.41889356500264535  0.5187529807614845  0.6099745337524431  1.0000
  H   H1250     1.0  0.4460441334024866  0.5281933874456496  0.6037477365941124  1.0000
  H   H1251     1.0  0.4473544725432705  0.5651274605920813  0.572050823180569  1.0000
  H   H1252     1.0  0.4220841228608841  0.5545285431882752  0.5964139532743006  1.0000
  C   C1707     1.0  0.4372656407869507  0.5512927422747665  0.07706290452844268  1.0000
  C   C1708     1.0  0.43771461005473317  0.533968654659322  0.1052973413403082  1.0000
  H   H1253     1.0  0.42418721534319476  0.5541548005445527  0.0888337525506226  1.0000
  H   H1254     1.0  0.45277113257930734  0.5675987213370612  0.07999295852461279  1.0000
  H   H1255     1.0  0.44709353068134067  0.5273289090048946  0.08989293703694878  1.0000
  H   H1256     1.0  0.42169779401329005  0.5189040558847592  0.10914537619027463  1.0000
  C   C1709     1.0  0.4509342831126611  0.44202028226066487  0.4724126341061276  1.0000
  C   C1710     1.0  0.4595367069398323  0.45026221161180136  0.517173242163967  1.0000
  H   H1257     1.0  0.4383863084855247  0.42394620319699877  0.4724094892590779  1.0000
  H   H1258     1.0  0.46405956492821304  0.44240547262257507  0.45271016733999514  1.0000
  H   H1259     1.0  0.44518116557930215  0.44489280666092684  0.5380518817266731  1.0000
  H   H1260     1.0  0.46757598658716026  0.46826271605803366  0.5183305458782426  1.0000
  C   C1711     1.0  0.5443670996082197  0.5386692390183769  0.3053394897457837  1.0000
  C   C1712     1.0  0.5621343632466801  0.5476390042322418  0.2701741245211681  1.0000
  H   H1261     1.0  0.5514726209014048  0.5440247154849541  0.3372376733705055  1.0000
  H   H1262     1.0  0.5363706526074085  0.520605282623724  0.3060143739226412  1.0000
  H   H1263     1.0  0.5774186794681507  0.5608299906874803  0.28437436688921197  1.0000
  H   H1264     1.0  0.5591140253237201  0.5567813088806808  0.24498169826044064  1.0000
  C   C1713     1.0  0.8400757788042045  0.8358852212700174  0.4619308588896041  1.0000
  C   C1714     1.0  0.8391621046775813  0.8276879133360249  0.5069210407820688  1.0000
  H   H1265     1.0  0.8560551997872068  0.8501374431776699  0.45544618427320105  1.0000
  H   H1266     1.0  0.8391359465329762  0.8236021290221482  0.43803631100627216  1.0000
  H   H1267     1.0  0.8218712420059682  0.8187763904677676  0.5178934121383395  1.0000
  H   H1268     1.0  0.847572812857805  0.8419840556571518  0.5283122904138697  1.0000
  C   C1715     1.0  0.8207467540405019  0.9985346080057882  0.4649436223631803  1.0000
  C   C1716     1.0  0.8248510430324414  0.9936220950016881  0.5107860578061034  1.0000
  H   H1269     1.0  0.8031530578456836  0.9920335968772687  0.4609465217630599  1.0000
  H   H1270     1.0  0.8244101942469997  0.9887625483668817  0.4417440856778237  1.0000
  H   H1271     1.0  0.826218358657545  0.005992696050299206  0.5337308618804374  1.0000
  H   H1272     1.0  0.8412993784286062  0.9959641742556173  0.5113993029807875  1.0000
  C   C1717     1.0  0.8288006230526087  0.8138325440083287  0.9788304993602505  1.0000
  C   C1718     1.0  0.83746016499755  0.8185953881198365  0.023909297215994853  1.0000
  H   H1273     1.0  0.8188495028324211  0.7962260011673639  0.9735848944814143  1.0000
  H   H1274     1.0  0.8422438610695133  0.8187558939726862  0.9558511019683702  1.0000
  H   H1275     1.0  0.8242222104904154  0.8133139998839455  0.04753058933918166  1.0000
  H   H1276     1.0  0.8487057522781585  0.8362778026531781  0.029943378147122345  1.0000
  C   C1719     1.0  0.8270604317768059  0.992203127409772  0.020767374874089032  1.0000
  C   C1720     1.0  0.8271238534625903  0.9932792095649502  0.9713740670055018  1.0000
  H   H1277     1.0  0.8228012356013025  0.0037114176671645266  0.03539493905924094  1.0000
  H   H1278     1.0  0.8441443258047976  0.9985285147637197  0.030827111616547862  1.0000
  H   H1279     1.0  0.8363163047790854  0.9854088027293708  0.9586374364543707  1.0000
  H   H1280     1.0  0.8104987105753175  0.9826614934217988  0.9595054142400774  1.0000
  C   C1721     1.0  0.782538611164292  0.9070625045544891  0.7677640896221848  1.0000
  C   C1722     1.0  0.8045075410557372  0.9090233542472997  0.7801484973037538  1.0000
  H   H1281     1.0  0.7802068342602028  0.919553921825316  0.7855827930055698  1.0000
  H   H1282     1.0  0.7687058488112809  0.8911626189959341  0.7786735640374624  1.0000
  H   H1283     1.0  0.8172075064675265  0.9264513069939442  0.7812995113239302  1.0000
  H   H1284     1.0  0.8091995651158348  0.901479505782194  0.7546469325780446  1.0000
  C   C1723     1.0  0.7974450373359697  0.890385655322075  0.254831988189392  1.0000
  C   C1724     1.0  0.7829543385031674  0.8934312384704894  0.2866852005013036  1.0000
  H   H1285     1.0  0.7946813190878655  0.8736455346728407  0.25681041146833433  1.0000
  H   H1286     1.0  0.8153966610131167  0.9008321386600535  0.26289002978474096  1.0000
  H   H1287     1.0  0.7885436328772881  0.9113933240529118  0.2887063937001214  1.0000
  H   H1288     1.0  0.7659211583293257  0.8863489738484743  0.2761200868379641  1.0000
  C   C1725     1.0  0.5144764017843747  0.6709189179864494  0.8529234028799824  1.0000
  C   C1726     1.0  0.5095012326072216  0.6677762222191953  0.8048827193493454  1.0000
  H   H1289     1.0  0.5204799142462814  0.6603211261311833  0.8628422504746163  1.0000
  H   H1290     1.0  0.4996470855980678  0.6654634396299719  0.8711666606150716  1.0000
  H   H1291     1.0  0.4983350575066379  0.6741706907859613  0.7980646909456782  1.0000
  H   H1292     1.0  0.524500945825095  0.6786516545628691  0.7868187178960869  1.0000
  C   C1727     1.0  0.6737906902112014  0.8873387028112546  0.6367937893919607  1.0000
  C   C1728     1.0  0.6714789440210538  0.8906366784758166  0.6842212277479136  1.0000
  H   H1293     1.0  0.6624747139610412  0.8699276492011462  0.6295543514836388  1.0000
  H   H1294     1.0  0.6680258385505352  0.8966573615337091  0.618339826904544  1.0000
  H   H1295     1.0  0.6761725787976814  0.9079182776846291  0.691382044479994  1.0000
  H   H1296     1.0  0.6834358621819896  0.8883851578747809  0.7022569255777251  1.0000
  C   C1729     1.0  0.6750184614614486  0.796910945278411  0.8558701245655156  1.0000
  C   C1730     1.0  0.6863567303346407  0.7905955014937038  0.89025588220652  1.0000
  H   H1297     1.0  0.6789607769856926  0.7935655996406861  0.822732871203227  1.0000
  H   H1298     1.0  0.681722113278076  0.8145405526659579  0.8560368014591477  1.0000
  H   H1299     1.0  0.6856611189473361  0.7750958178635537  0.8827051044402815  1.0000
  H   H1300     1.0  0.6766921966851052  0.788665729654958  0.919528118544774  1.0000
  C   C1731     1.0  0.5165138006345381  0.6583104804537584  0.34460919485491326  1.0000
  C   C1732     1.0  0.5098863997207508  0.6535999496228457  0.29859693767130835  1.0000
  H   H1301     1.0  0.5228232291423203  0.6476434748178284  0.3537795688517276  1.0000
  H   H1302     1.0  0.5028373651798713  0.6530970503436876  0.36625832194478647  1.0000
  H   H1303     1.0  0.5244310639071432  0.6638835027544618  0.2783494689114695  1.0000
  H   H1304     1.0  0.49812191348488405  0.6587919748802363  0.29173613934776577  1.0000
  C   C1733     1.0  0.5740803173658109  0.789532642490818  0.5582826827971488  1.0000
  C   C1734     1.0  0.5551128586858334  0.767928654367626  0.5435019016637372  1.0000
  H   H1305     1.0  0.5752668415989034  0.8033357691365588  0.5389355837476281  1.0000
  H   H1306     1.0  0.5896777811797764  0.7902291921814188  0.5530402227653621  1.0000
  H   H1307     1.0  0.5401396651899365  0.768952490638136  0.5422974252437167  1.0000
  H   H1308     1.0  0.552620148178518  0.7550572806779837  0.5677549621107307  1.0000
  C   C1735     1.0  0.5895593611378375  0.8040663171750648  0.06449452329446848  1.0000
  C   C1736     1.0  0.5678707992608153  0.7843489322076711  0.04703967871472942  1.0000
  H   H1309     1.0  0.5941395595155123  0.820427501503945  0.05130251889054628  1.0000
  H   H1310     1.0  0.6033070472491127  0.8025157997835046  0.05316206695101142  1.0000
  H   H1311     1.0  0.5628020190642334  0.7696222375415891  0.0660480777370015  1.0000
  H   H1312     1.0  0.554956700821256  0.7889527963435476  0.050134837181006774  1.0000
  C   C1737     1.0  0.6851332453079992  0.8794545862962235  0.20269922967773493  1.0000
  C   C1738     1.0  0.6859348601223262  0.8772497102648914  0.15483308515835437  1.0000
  H   H1313     1.0  0.6910599743789226  0.8967291376114199  0.21253725470319262  1.0000
  H   H1314     1.0  0.6974439293586469  0.8758339647589315  0.21733629130097684  1.0000
  H   H1315     1.0  0.6791607046276821  0.8859279347971101  0.13837138327689857  1.0000
  H   H1316     1.0  0.6741064340265531  0.859972529985689  0.14636055272185994  1.0000
  C   C1739     1.0  0.674033079828017  0.7665920537187612  0.39565320731797726  1.0000
  C   C1740     1.0  0.6836382303577576  0.7703856914958712  0.44023141424693624  1.0000
  H   H1317     1.0  0.6739216681102684  0.7521555069117866  0.38120577997183  1.0000
  H   H1318     1.0  0.6850919196653683  0.7803866440306959  0.374469517591454  1.0000
  H   H1319     1.0  0.6869269101162573  0.7572101885793004  0.4462695205822873  1.0000
  H   H1320     1.0  0.6711955675937028  0.7674671927965481  0.46469517944625705  1.0000
  C   C1741     1.0  0.49807259517556407  0.1446027598095248  0.6242552842049583  1.0000
  C   C1742     1.0  0.5152121169389597  0.1533656833650072  0.6597102898428477  1.0000
  H   H1321     1.0  0.48451918036136393  0.1280235146949947  0.6315670535954225  1.0000
  H   H1322     1.0  0.5055180297829713  0.14274564298273332  0.5956151621236864  1.0000
  H   H1323     1.0  0.5103133461200725  0.1600568657532705  0.6863817376710314  1.0000
  H   H1324     1.0  0.5300143309395376  0.167939758790399  0.6485775312870443  1.0000
  C   C1743     1.0  0.6843102580239103  0.13612660897928427  0.6610499946860038  1.0000
  C   C1744     1.0  0.6783781408291005  0.1243495428183698  0.6184624759394809  1.0000
  H   H1325     1.0  0.6803017711612295  0.14959833935351005  0.6604839222170646  1.0000
  H   H1326     1.0  0.6741519300713259  0.12507953998201893  0.6855483532028709  1.0000
  H   H1327     1.0  0.6852770536381237  0.11374653981813224  0.6128677930381322  1.0000
  H   H1328     1.0  0.6850042390350543  0.13659349355561076  0.5929797802960697  1.0000
  C   C1745     1.0  0.4953499097222839  0.14482645371710903  0.16365312319383643  1.0000
  C   C1746     1.0  0.5045757209315205  0.14794315903142957  0.20781998412869962  1.0000
  H   H1329     1.0  0.4823968176680575  0.1274515557194987  0.1592113412208938  1.0000
  H   H1330     1.0  0.5078526163536832  0.14640648603579778  0.14008626837307925  1.0000
  H   H1331     1.0  0.5174501374361206  0.16475522353282376  0.21387664506164367  1.0000
  H   H1332     1.0  0.4920915565857169  0.14582330550143405  0.2305295536437189  1.0000
  C   C1747     1.0  0.6710636465501816  0.14373197666166218  0.1986492956471802  1.0000
  C   C1748     1.0  0.6719927136355354  0.1481098655891441  0.15070390098214814  1.0000
  H   H1333     1.0  0.6604939200274014  0.12652443107059044  0.20647965031613366  1.0000
  H   H1334     1.0  0.6636702654171183  0.15247948763061808  0.214803745971884  1.0000
  H   H1335     1.0  0.6848796610430219  0.14610540868322808  0.13440604563197975  1.0000
  H   H1336     1.0  0.6768829754537263  0.16559129457448035  0.1448878208485032  1.0000
  C   C1749     1.0  0.5758895549174738  0.0976826860886015  0.8936743309495027  1.0000
  C   C1750     1.0  0.5674149200903816  0.11220628653550851  0.8778871987601993  1.0000
  H   H1337     1.0  0.5653903874040228  0.08046982984570218  0.8828749261809632  1.0000
  H   H1338     1.0  0.5921282752625736  0.1033581174374188  0.8793464077912425  1.0000
  H   H1339     1.0  0.5799019135703207  0.1296272620115872  0.8789438673688857  1.0000
  H   H1340     1.0  0.5543492418817366  0.11078368923857368  0.8985111057118829  1.0000
  C   C1751     1.0  0.570004813900937  0.09667435240985656  0.3857878221231876  1.0000
  C   C1752     1.0  0.5703966086072333  0.07568430224011033  0.3972633690074042  1.0000
  H   H1341     1.0  0.5604715431079373  0.10004261272419074  0.40894333094984897  1.0000
  H   H1342     1.0  0.5863837045933583  0.11106389684474557  0.3865205714857588  1.0000
  H   H1343     1.0  0.5823875109573318  0.07465415724822955  0.37737850111239135  1.0000
  H   H1344     1.0  0.5550571939136211  0.060952108145232976  0.387989215057951  1.0000
  C   C1753     1.0  0.5198155646477571  0.8457458690330594  0.7923316347741444  1.0000
  C   C1754     1.0  0.5175764725607567  0.8445663527323987  0.8408031623505849  1.0000
  H   H1345     1.0  0.5032268070670429  0.8354851989225377  0.7771923410770715  1.0000
  H   H1346     1.0  0.5252568884609765  0.8623158460158965  0.7806453831376003  1.0000
  H   H1347     1.0  0.5322668547970735  0.8461517789458196  0.8557537652246782  1.0000
  H   H1348     1.0  0.5048316247723558  0.8280256515755002  0.8495772856191419  1.0000
  C   C1755     1.0  0.5692695159137663  0.9982660327984051  0.9656473005280674  1.0000
  C   C1756     1.0  0.5715926358497725  0.9993362615323284  0.013749774476650246  1.0000
  H   H1349     1.0  0.5859138991853794  0.0034222739910627947  0.9525615919544237  1.0000
  H   H1350     1.0  0.565853319252036  0.0110132648683365  0.9547189570304918  1.0000
  H   H1351     1.0  0.5843756428205362  0.9959748633451612  0.02403672641844716  1.0000
  H   H1352     1.0  0.5563568737460081  0.9863150277248197  0.03018317273465907  1.0000
  C   C1757     1.0  0.44409168525620635  0.9862481329933083  0.7475521576340071  1.0000
  C   C1758     1.0  0.45159920706484263  0.9985232586795645  0.7052288060396558  1.0000
  H   H1353     1.0  0.42625693863364617  0.9796194740108563  0.7491403053940864  1.0000
  H   H1354     1.0  0.45061182164920893  0.9982635801241958  0.7730757362890639  1.0000
  H   H1355     1.0  0.45035176948663885  0.987164135071955  0.6796266062083574  1.0000
  H   H1356     1.0  0.4392790172867605  0.0032441612477000555  0.6966590978293268  1.0000
  C   C1759     1.0  0.5204767971485591  0.8447506475967238  0.3059105939700023  1.0000
  C   C1760     1.0  0.5326975620885858  0.8359607295367627  0.3319134473154277  1.0000
  H   H1357     1.0  0.5069211106136093  0.831209642695268  0.2877314911147261  1.0000
  H   H1358     1.0  0.5313335641981792  0.8564479839402465  0.2823937422173348  1.0000
  H   H1359     1.0  0.5202460802550062  0.8211555428283569  0.3480779611506904  1.0000
  H   H1360     1.0  0.5409650141950337  0.8481013349889716  0.355748243104816  1.0000
  C   C1761     1.0  0.44895925181025303  0.8613696872047009  0.5829697321369954  1.0000
  C   C1762     1.0  0.4666065290066732  0.8801790797021054  0.6100846033991814  1.0000
  H   H1361     1.0  0.433369576844183  0.8611996915072729  0.5864384984327727  1.0000
  H   H1362     1.0  0.44576624084459926  0.8456716242551257  0.5946654183146884  1.0000
  H   H1363     1.0  0.48027149506812533  0.8773165603603511  0.6169843978261398  1.0000
  H   H1364     1.0  0.4746142507442986  0.8954216752947627  0.5918633595934396  1.0000
  C   C1763     1.0  0.46852461510727744  0.8981006621814838  0.09180877785960288  1.0000
  C   C1764     1.0  0.455812929318172  0.8749152988817918  0.10971333556744359  1.0000
  H   H1365     1.0  0.4837274708933645  0.9091611630660551  0.11034387740090082  1.0000
  H   H1366     1.0  0.45840569554525595  0.9059047255394155  0.09566781967424313  1.0000
  H   H1367     1.0  0.4653775860208375  0.8665724598681415  0.1096416330547113  1.0000
  H   H1368     1.0  0.4419526454771396  0.8647430194679828  0.08831673969565819  1.0000
  C   C1765     1.0  0.5460916589090312  0.9744516208710663  0.4853851281859834  1.0000
  C   C1766     1.0  0.5494519778818813  0.974684768710501  0.5336207922336993  1.0000
  H   H1369     1.0  0.5622575682534291  0.9822898628843922  0.46806960033054434  1.0000
  H   H1370     1.0  0.5388937540398451  0.9849004883470884  0.4782966429360452  1.0000
  H   H1371     1.0  0.5605273283689707  0.9686576280891155  0.5413256675053713  1.0000
  H   H1372     1.0  0.5340732808236652  0.9639388170181666  0.5506312699253211  1.0000
  C   C1767     1.0  0.4457286444066947  0.9806669430387797  0.22946911121857286  1.0000
  C   C1768     1.0  0.4643155011004934  0.9897297202577852  0.19650639686754054  1.0000
  H   H1373     1.0  0.4505364690525325  0.9916273367969273  0.25702205967477665  1.0000
  H   H1374     1.0  0.43079741627041557  0.9801456669727265  0.2171057740122366  1.0000
  H   H1375     1.0  0.45581743060572816  0.9856387278938098  0.165750421691256  1.0000
  H   H1376     1.0  0.47222791345415216  0.9793474704022176  0.19716052505387022  1.0000
  C   C1769     1.0  0.0014259889230553604  0.7915901171793213  0.5376084582926707  1.0000
  C   C1770     1.0  0.9978055287182716  0.7848282390357271  0.4910112595578287  1.0000
  H   H1377     1.0  0.992009551989565  0.777517934110781  0.5578235351278981  1.0000
  H   H1378     1.0  0.9951019766670948  0.8030229850410329  0.5428100353128117  1.0000
  H   H1379     1.0  0.002659440701925102  0.7724658915669935  0.4839793815547844  1.0000
  H   H1380     1.0  0.009386409346450339  0.7988964931889071  0.4717081883670033  1.0000
  C   C1771     1.0  0.1973578415552045  0.002269447518086568  0.486058125454611  1.0000
  C   C1772     1.0  0.1826644590668869  0.9845952727856774  0.5179091363735878  1.0000
  H   H1381     1.0  0.18672870960636548  0.003981299141800059  0.4617987753135183  1.0000
  H   H1382     1.0  0.20613633426911493  0.9957235713033222  0.4682205529889281  1.0000
  H   H1383     1.0  0.16964162248307077  0.9876599872538937  0.5290450397764411  1.0000
  H   H1384     1.0  0.19079493494063365  0.9844366018013625  0.5475839131341985  1.0000
  C   C1773     1.0  0.024908338806909024  0.8292409140144709  0.006104431159628428  1.0000
  C   C1774     1.0  0.02349838967820929  0.8286725475391491  0.9571216201764337  1.0000
  H   H1385     1.0  0.013861853347610477  0.8129358249960402  0.01889244851155104  1.0000
  H   H1386     1.0  0.01821110665572027  0.8388074709596256  0.019917700098211352  1.0000
  H   H1387     1.0  0.034538457148927455  0.8236688592717297  0.9429446496765572  1.0000
  H   H1388     1.0  0.03021093411722562  0.8454946057153249  0.9449227584707948  1.0000
  C   C1775     1.0  0.20599757644006564  0.012397728974392083  0.015391541878926298  1.0000
  C   C1776     1.0  0.199865934893832  0.006389056677266609  0.9688707687539708  1.0000
  H   H1389     1.0  0.212336907322547  0.0026984275660042905  0.029061374343574135  1.0000
  H   H1390     1.0  0.19089908444474712  0.007481469241840847  0.033785406339223924  1.0000
  H   H1391     1.0  0.2142638023599657  0.015709395317492228  0.9496903465980823  1.0000
  H   H1392     1.0  0.18854783911703732  0.011711929081211403  0.9585399461958313  1.0000
  C   C1777     1.0  0.12303105448350585  0.8933353672081734  0.7719624604334836  1.0000
  C   C1778     1.0  0.11764825506568134  0.8700608354325158  0.7599019719980298  1.0000
  H   H1393     1.0  0.10892667942452282  0.8957537655244132  0.7704843823201424  1.0000
  H   H1394     1.0  0.1342482975242654  0.904939686030826  0.7473823358933253  1.0000
  H   H1395     1.0  0.1326853995149872  0.8692986099196954  0.7650595211594755  1.0000
  H   H1396     1.0  0.10580989791861202  0.8574114623983188  0.7828499209194134  1.0000
  C   C1779     1.0  0.1225855252615004  0.8738991889695867  0.2568465772094055  1.0000
  C   C1780     1.0  0.10796118660568141  0.8815083485797935  0.2777406265226549  1.0000
  H   H1397     1.0  0.13984574578018638  0.8865557366156817  0.26436339062750763  1.0000
  H   H1398     1.0  0.12055902594752924  0.8590012049949196  0.27373660725902527  1.0000
  H   H1399     1.0  0.0907423313574117  0.8698268000590583  0.273096630884419  1.0000
  H   H1400     1.0  0.10965485685386801  0.8967929497522931  0.26333062285639863  1.0000
  C   C1781     1.0  0.16229109764875216  0.6675593983750048  0.8176948262296685  1.0000
  C   C1782     1.0  0.15672606701868647  0.6663240604901  0.8643832255289507  1.0000
  H   H1401     1.0  0.1475505220180434  0.6562307096017138  0.8009013429844734  1.0000
  H   H1402     1.0  0.17381359894450224  0.6616667583986103  0.8112604691660601  1.0000
  H   H1403     1.0  0.17194349384876306  0.6711575915862593  0.8831139345567376  1.0000
  H   H1404     1.0  0.15187917607415638  0.6787098182512034  0.8710219976507871  1.0000
  C   C1783     1.0  0.3525993496397329  0.8342214759872152  0.7922938966095484  1.0000
  C   C1784     1.0  0.3474568152422707  0.8303254505209868  0.8403943322341288  1.0000
  H   H1405     1.0  0.34211305537308606  0.8393448372199676  0.7768872909132543  1.0000
  H   H1406     1.0  0.34829839410828606  0.8190684696431406  0.7755727448464955  1.0000
  H   H1407     1.0  0.3506853785916646  0.8172054864107754  0.8498288733831149  1.0000
  H   H1408     1.0  0.3587926115644804  0.8450553653985231  0.8601722753294533  1.0000
  C   C1785     1.0  0.2311168451540977  0.8831027397562974  0.930953347876196  1.0000
  C   C1786     1.0  0.235534510099553  0.8783759999640595  0.8855637704084243  1.0000
  H   H1409     1.0  0.2251158144848718  0.8684973275442438  0.9511841489466717  1.0000
  H   H1410     1.0  0.24678225896499  0.8951270881273271  0.94561776966877  1.0000
  H   H1411     1.0  0.24882439234443834  0.8934455552007282  0.8731730730327559  1.0000
  H   H1412     1.0  0.22212403653919974  0.874344166875034  0.8634617853433997  1.0000
  C   C1787     1.0  0.1300261654161465  0.7761892975743752  0.6838123976314574  1.0000
  C   C1788     1.0  0.12744264086474297  0.7759590878038984  0.635460374242904  1.0000
  H   H1413     1.0  0.1141860747716498  0.7652216583646266  0.6988133180583452  1.0000
  H   H1414     1.0  0.13512489133101993  0.79328111399621  0.6949577355754596  1.0000
  H   H1415     1.0  0.14354658812136828  0.7810670243732994  0.6209500499557636  1.0000
  H   H1416     1.0  0.11774531549727804  0.7590535652587636  0.6253905739898863  1.0000
  C   C1789     1.0  0.14336359291164658  0.6491093973590009  0.2751121633585474  1.0000
  C   C1790     1.0  0.1425569294858106  0.6488164654967924  0.32414567510276254  1.0000
  H   H1417     1.0  0.12616836586838753  0.6391001228808445  0.2637863111938947  1.0000
  H   H1418     1.0  0.15224863666901148  0.6402175926817878  0.26557195534869277  1.0000
  H   H1419     1.0  0.13619373264037624  0.659053965538907  0.33519666763527484  1.0000
  H   H1420     1.0  0.15832593885411103  0.6552086503587213  0.33821572080295037  1.0000
  C   C1791     1.0  0.3261873170738539  0.8258759885054813  0.3564621233850893  1.0000
  C   C1792     1.0  0.33307771292088173  0.8360623459269532  0.3120090813687069  1.0000
  H   H1421     1.0  0.3362669241293486  0.838060265814941  0.38126553206577357  1.0000
  H   H1422     1.0  0.32964718880324767  0.8127372594435145  0.35877987566069025  1.0000
  H   H1423     1.0  0.3254630908652544  0.823075270499633  0.28848122265136555  1.0000
  H   H1424     1.0  0.3263455825466124  0.8469396986794965  0.3065986865044684  1.0000
  C   C1793     1.0  0.2041817133115302  0.7487749735377447  0.5263907888665262  1.0000
  C   C1794     1.0  0.2223831781316008  0.7520848526206871  0.5574272843996407  1.0000
  H   H1425     1.0  0.19429806242597641  0.7546795794908273  0.5415646758811455  1.0000
  H   H1426     1.0  0.1929387667278181  0.7313015927505575  0.5196639610272993  1.0000
  H   H1427     1.0  0.22551604672211426  0.7379721256232848  0.5515149719462761  1.0000
  H   H1428     1.0  0.23870498878804056  0.7664533064272527  0.5498324787747069  1.0000
  C   C1795     1.0  0.22092089047268804  0.7534822886651341  0.020032266876230536  1.0000
  C   C1796     1.0  0.23507088842506915  0.7542772334151258  0.05767460798257144  1.0000
  H   H1429     1.0  0.20890463741126689  0.7590132598852217  0.02869528269852298  1.0000
  H   H1430     1.0  0.21131068117682644  0.7365730638563371  0.009812237279650433  1.0000
  H   H1431     1.0  0.2507764455928708  0.7702896464462384  0.060911599050788544  1.0000
  H   H1432     1.0  0.24079459302466025  0.7426448610775278  0.05306614911599673  1.0000
  C   C1797     1.0  0.19943832650573298  0.8545258463079939  0.35370409252253576  1.0000
  C   C1798     1.0  0.20877698451432947  0.8711359954724489  0.3908415913319944  1.0000
  H   H1433     1.0  0.20365428815875725  0.8625936700021952  0.32403246060897467  1.0000
  H   H1434     1.0  0.1817810047393851  0.8455861394868037  0.3565564687965792  1.0000
  H   H1435     1.0  0.22410865399955163  0.8861995138920835  0.38091016434916175  1.0000
  H   H1436     1.0  0.2132154205282367  0.8638617677571271  0.4177394681477536  1.0000
  C   C1799     1.0  0.13667747845239042  0.7858049845957046  0.10645055675341926  1.0000
  C   C1800     1.0  0.12787618387062985  0.7730227210581162  0.14809399241563365  1.0000
  H   H1437     1.0  0.13030088732963077  0.7737625704630493  0.07920674676219727  1.0000
  H   H1438     1.0  0.15480112653712189  0.7933881665835576  0.10629866064092058  1.0000
  H   H1439     1.0  0.11055089828565313  0.7597902401864723  0.14452710689190698  1.0000
  H   H1440     1.0  0.12677806665801108  0.784449917621896  0.170719280029722  1.0000
