data_image0
_chemical_formula_structural       C6H4C38H24C6H4C38H24C6H4C38H24C6H4C38H24C6H4C38H24C6H4C38H24C2H4C2H4C2H4C2H4C2H4C2H4C2H4C2H4C2H4C2H4C2H4C2H4C2H4C2H4C2H4C2H4C2H4C2H4C6H4C38H24C6H4C38H24C6H4C38H24C6H4C38H24C6H4C38H24C6H4C38H24C2H4C2H4C2H4C2H4C2H4C2H4C2H4C2H4C2H4C2H4C2H4C2H4C2H4C2H4C2H4C2H4C2H4C2H4C6H4C38H24C6H4C38H24C6H4C38H24C6H4C38H24C6H4C38H24C6H4C38H24C2H4C2H4C2H4C2H4C2H4C2H4C2H4C2H4C2H4C2H4C2H4C2H4C2H4C2H4C2H4C2H4C2H4C2H4C6H4C38H24C6H4C38H24C6H4C38H24C6H4C38H24C6H4C38H24C6H4C38H24C2H4C2H4C2H4C2H4C2H4C2H4C2H4C2H4C2H4C2H4C2H4C2H4C2H4C2H4C2H4C2H4C2H4C2H4
_chemical_formula_sum              "C1200 H960"
_cell_length_a       43.666403501196896
_cell_length_b       41.67262868345379
_cell_length_c       48.65014181175627
_cell_angle_alpha    89.91520000052978
_cell_angle_beta     89.74379999942302
_cell_angle_gamma    107.39840000134602

_space_group_name_H-M_alt    "P 1"
_space_group_IT_number       1

loop_
  _space_group_symop_operation_xyz
  'x, y, z'

loop_
  _atom_site_type_symbol
  _atom_site_label
  _atom_site_symmetry_multiplicity
  _atom_site_fract_x
  _atom_site_fract_y
  _atom_site_fract_z
  _atom_site_occupancy
  C   C1        1.0  0.42037372194231926  0.14825513216701489  0.8364206683801343  1.0000
  C   C2        1.0  0.4213748057858185  0.15207628914775995  0.8644641546664508  1.0000
  C   C3        1.0  0.41355918654421764  0.17815513130559077  0.8761436305206507  1.0000
  C   C4        1.0  0.4062469841556903  0.20279512803133878  0.8606491058833823  1.0000
  C   C5        1.0  0.4038319848721216  0.19845322242553617  0.832383623223913  1.0000
  C   C6        1.0  0.41107536936432193  0.1713709302869782  0.8201697116565677  1.0000
  H   H1        1.0  0.42671729552042265  0.13393119851021076  0.8783101506808632  1.0000
  H   H2        1.0  0.41418867725694053  0.17881599206601564  0.8984254887148654  1.0000
  H   H3        1.0  0.39652535743811973  0.21544478122837912  0.818965175780017  1.0000
  H   H4        1.0  0.4085476464055093  0.16786409288631574  0.7984675106589185  1.0000
  C   C7        1.0  0.43639913258872476  0.27986490714043744  0.8444207599015257  1.0000
  C   C8        1.0  0.4077850164982055  0.26938458744716265  0.8587703587994789  1.0000
  C   C9        1.0  0.3890082657450894  0.29054522091782425  0.8596419001163006  1.0000
  C   C10       1.0  0.39939815040721177  0.32175542407420277  0.8463673392105591  1.0000
  C   C11       1.0  0.4282408903362984  0.3321545529978864  0.8322171259440485  1.0000
  C   C12       1.0  0.4462260194004539  0.31084305190445877  0.8313414735832796  1.0000
  C   C13       1.0  0.3993526804718818  0.2345384706559008  0.87487126241897  1.0000
  C   C14       1.0  0.4210882091777397  0.24833187161845835  0.9018232665372856  1.0000
  C   C15       1.0  0.4095033655659946  0.2651302031972488  0.9219920481426025  1.0000
  C   C16       1.0  0.42488625411729225  0.2738366012801075  0.9462287077337449  1.0000
  C   C17       1.0  0.4521816363966525  0.26525966867467976  0.9508988536578461  1.0000
  C   C18       1.0  0.46587211782795546  0.2519098998407722  0.9304813538937193  1.0000
  C   C19       1.0  0.4511021031850522  0.2443723538645341  0.9056136490566705  1.0000
  C   C20       1.0  0.3389624259888392  0.21600794559013298  0.8621003043967693  1.0000
  C   C21       1.0  0.30726956878874484  0.20084522117832201  0.8679605975436057  1.0000
  C   C22       1.0  0.29768340808777866  0.18461828346363107  0.8927563591115771  1.0000
  C   C23       1.0  0.32196973480494395  0.18455845566480983  0.9114102210223242  1.0000
  C   C24       1.0  0.3532989681216463  0.19980358083093103  0.9055725386171978  1.0000
  C   C25       1.0  0.3626080893499353  0.21762946702175956  0.8817942604261761  1.0000
  C   C26       1.0  0.2611940677742404  0.168269257562345  0.9015724928565021  1.0000
  C   C27       1.0  0.24158533686064712  0.24986468920476823  0.9474003552587175  1.0000
  C   C28       1.0  0.23654084924908558  0.24876590108354413  0.9195110331204238  1.0000
  C   C29       1.0  0.24443285357920733  0.22422171155229095  0.904509833756828  1.0000
  C   C30       1.0  0.25552760894499366  0.19981711430993163  0.9172129595538986  1.0000
  C   C31       1.0  0.2645987893443355  0.20562566822405715  0.9446233450723353  1.0000
  C   C32       1.0  0.25669582047489276  0.22927985339665852  0.9599863163032911  1.0000
  C   C33       1.0  0.2537839794275978  0.135823156879368  0.9208820662768391  1.0000
  C   C34       1.0  0.2705452463582611  0.11206033753077156  0.9180516125191422  1.0000
  C   C35       1.0  0.26442409221583774  0.08509829814021382  0.9356242698717567  1.0000
  C   C36       1.0  0.24326830850213943  0.0819659737019595  0.957349081611116  1.0000
  C   C37       1.0  0.22498917574427407  0.10353127457841836  0.9588331684760812  1.0000
  C   C38       1.0  0.22967998225214636  0.1296942550542863  0.9403930808505924  1.0000
  C   C39       1.0  0.20834195856475754  0.15270513778824718  0.8736770041522874  1.0000
  C   C40       1.0  0.1895201312541842  0.13752240804997595  0.8514465340074138  1.0000
  C   C41       1.0  0.20181577162651249  0.12153594011953642  0.8314545272918297  1.0000
  C   C42       1.0  0.23287837480991386  0.11982782378871276  0.8342747034396584  1.0000
  C   C43       1.0  0.2510451010268363  0.13429427470456545  0.8565997275953192  1.0000
  C   C44       1.0  0.24029572930900506  0.15296933014374672  0.8758640795322362  1.0000
  H   H5        1.0  0.45289692301773776  0.26550538540803953  0.8438739910565386  1.0000
  H   H6        1.0  0.36604862330652277  0.28315104421298076  0.8703450030330234  1.0000
  H   H7        1.0  0.3841829611324139  0.3382366688029832  0.8471052715990943  1.0000
  H   H8        1.0  0.468489055086334  0.3166026610875287  0.8206404261885304  1.0000
  H   H9        1.0  0.3873084599540043  0.2706443141700503  0.9186888243309694  1.0000
  H   H10       1.0  0.41466289641863624  0.2855654719935691  0.9621672251173189  1.0000
  H   H11       1.0  0.48900827271419145  0.24780743565737443  0.9326314298781426  1.0000
  H   H12       1.0  0.46279160401029584  0.23471247634294243  0.888939254806535  1.0000
  H   H13       1.0  0.34677496832860083  0.22783511045590038  0.8424680140265715  1.0000
  H   H14       1.0  0.2886234758013717  0.20145437822993312  0.8532430602123716  1.0000
  H   H15       1.0  0.3164340145494368  0.17209823584227174  0.9310014009530493  1.0000
  H   H16       1.0  0.3706449833789216  0.19952311542879403  0.9210506190786771  1.0000
  H   H17       1.0  0.22455761988384532  0.2651751306645831  0.9102488511072198  1.0000
  H   H18       1.0  0.23917742478371212  0.22278472086934248  0.8829494637753595  1.0000
  H   H19       1.0  0.27768270177606896  0.1909017158371994  0.9548824552427528  1.0000
  H   H20       1.0  0.26194956468502995  0.23220661816929186  0.9819475130696185  1.0000
  H   H21       1.0  0.28714306049404065  0.11295012240632005  0.9015971591201858  1.0000
  H   H22       1.0  0.27858885438396697  0.06839898569340833  0.9342018486660005  1.0000
  H   H23       1.0  0.20567990213479984  0.09966869976672467  0.974076919432566  1.0000
  H   H24       1.0  0.21368450140696926  0.14540491435133848  0.9415010071943821  1.0000
  H   H25       1.0  0.19756181420913493  0.164315174290807  0.8890276422514014  1.0000
  H   H26       1.0  0.1643814505024329  0.13653283821544207  0.8505503264269083  1.0000
  H   H27       1.0  0.24375007904616305  0.10543793344478686  0.8199949922888087  1.0000
  H   H28       1.0  0.2752570950202604  0.1328763614218922  0.8584435308056707  1.0000
  C   C45       1.0  0.42113485215151675  0.11499279809358706  0.5964282003482587  1.0000
  C   C46       1.0  0.418072704820801  0.14042988298047923  0.6133307575374679  1.0000
  C   C47       1.0  0.41080309742374954  0.16744868932921697  0.602808540554425  1.0000
  C   C48       1.0  0.4095629911222905  0.171965612302037  0.574469059103905  1.0000
  C   C49       1.0  0.41147272882777036  0.14500020771262415  0.5574637258160141  1.0000
  C   C50       1.0  0.4145802671686006  0.11594948019580796  0.5685532668637805  1.0000
  H   H29       1.0  0.4235321242052359  0.139572008793389  0.6350144588373545  1.0000
  H   H30       1.0  0.40805924807838273  0.1852842377879846  0.6177830181323636  1.0000
  H   H31       1.0  0.4080951848414709  0.1462800295994115  0.5350893691329859  1.0000
  H   H32       1.0  0.4169358573164439  0.09685334642229862  0.5551697632934363  1.0000
  C   C51       1.0  0.4563131655095243  0.21490157528152426  0.5330153474615871  1.0000
  C   C52       1.0  0.42632716035158463  0.21915483372885658  0.5357635803403384  1.0000
  C   C53       1.0  0.4161854072694784  0.2361133130803  0.5149329206595109  1.0000
  C   C54       1.0  0.4336271280297242  0.24533480998466473  0.49103336667204467  1.0000
  C   C55       1.0  0.46214291943482944  0.2389189743172252  0.4879171953600124  1.0000
  C   C56       1.0  0.4741930118848436  0.22474510497619862  0.5098413927308144  1.0000
  C   C57       1.0  0.40522140440425164  0.20617446422577776  0.5622777582782698  1.0000
  C   C58       1.0  0.41687745048906794  0.2391683488386837  0.5808925652715177  1.0000
  C   C59       1.0  0.4021061516156839  0.26454944451683854  0.5807815670849413  1.0000
  C   C60       1.0  0.413160749111375  0.2934775029007976  0.5957190452673544  1.0000
  C   C61       1.0  0.4408218557002154  0.29885473584785  0.6108189096856848  1.0000
  C   C62       1.0  0.4566998335028672  0.2747612531901121  0.6108374093834474  1.0000
  C   C63       1.0  0.4453816333337942  0.24597747504698728  0.5957087676574861  1.0000
  C   C64       1.0  0.3569341839479806  0.1767767887990481  0.5310811012843956  1.0000
  C   C65       1.0  0.32491124268555815  0.1634140915542107  0.5265671750302908  1.0000
  C   C66       1.0  0.30195320855057783  0.16641138759799978  0.5451532047159079  1.0000
  C   C67       1.0  0.3121947271290224  0.1823623731001531  0.569747525130463  1.0000
  C   C68       1.0  0.3444946115322109  0.19347246907533971  0.5753549890745422  1.0000
  C   C69       1.0  0.36762521330510695  0.19207486517449587  0.5558398634568417  1.0000
  C   C70       1.0  0.26503064172027146  0.15455698874237483  0.5368858953379437  1.0000
  C   C71       1.0  0.26843493450011124  0.25174230406038073  0.5006367653328722  1.0000
  C   C72       1.0  0.27815749644762655  0.22896914902383317  0.48565612118901275  1.0000
  C   C73       1.0  0.2757289147535473  0.1976046036966412  0.4960591178975847  1.0000
  C   C74       1.0  0.2644434261290543  0.18904646943198047  0.5228877906974823  1.0000
  C   C75       1.0  0.2577214366840718  0.21384431957595754  0.5383967039885662  1.0000
  C   C76       1.0  0.25969536872828053  0.24540323614118678  0.5275106596161898  1.0000
  C   C77       1.0  0.23802765023872777  0.141051070013285  0.56046889894147  1.0000
  C   C78       1.0  0.24333505386439722  0.12362262289940769  0.5833797468596172  1.0000
  C   C79       1.0  0.21931031078907057  0.10891497826318355  0.6019349437156297  1.0000
  C   C80       1.0  0.18851492484230617  0.11018383391770653  0.5974970717745496  1.0000
  C   C81       1.0  0.18258697209925454  0.12739612563179062  0.574695166521005  1.0000
  C   C82       1.0  0.2071764011473455  0.14322262755362372  0.5574452261182513  1.0000
  C   C83       1.0  0.2331772523848253  0.11902064882071904  0.4966408306161238  1.0000
  C   C84       1.0  0.22733957804500574  0.0932863600950838  0.4782665196937912  1.0000
  C   C85       1.0  0.24176016206008705  0.06827624359932183  0.4810764182317517  1.0000
  C   C86       1.0  0.26276711082936105  0.07011938187060487  0.5026306216472992  1.0000
  C   C87       1.0  0.2679373422513924  0.09543939322642749  0.5216606440792215  1.0000
  C   C88       1.0  0.2551945330329215  0.12200900648494784  0.5177017087579986  1.0000
  H   H33       1.0  0.46495818530818744  0.2031709433446301  0.5495232444318581  1.0000
  H   H34       1.0  0.3931201326811439  0.2397110273613274  0.5163471197773725  1.0000
  H   H35       1.0  0.42396677183284986  0.255353054912698  0.47428086258691093  1.0000
  H   H36       1.0  0.4956052264797721  0.2176775841841687  0.5066203897981267  1.0000
  H   H37       1.0  0.38093706180365017  0.26241515220695544  0.5687526524952232  1.0000
  H   H38       1.0  0.40069863761362656  0.3130133198678632  0.5952853301309172  1.0000
  H   H39       1.0  0.4776585490736211  0.27814372746771276  0.6240133052344544  1.0000
  H   H40       1.0  0.4585257797440062  0.22803738491658299  0.5963809233428652  1.0000
  H   H41       1.0  0.37275679450394333  0.17264551286713284  0.5159339598606716  1.0000
  H   H42       1.0  0.31682749224208434  0.15205768215126053  0.5076255400432347  1.0000
  H   H43       1.0  0.2948589348006244  0.18499934824523215  0.5856079326790387  1.0000
  H   H44       1.0  0.3521830882167667  0.2019808378814208  0.5960047628216898  1.0000
  H   H45       1.0  0.28676825341326917  0.2329535129331809  0.46468157497003065  1.0000
  H   H46       1.0  0.2835463992683746  0.18077609134823158  0.4833416034466986  1.0000
  H   H47       1.0  0.2509829881763698  0.2087014835030572  0.559774132514381  1.0000
  H   H48       1.0  0.25288774945534914  0.2637938155837139  0.5393422440964388  1.0000
  H   H49       1.0  0.26685265629661603  0.12064013629212215  0.5854804903166733  1.0000
  H   H50       1.0  0.22391051545359764  0.09670633255220293  0.6198960947212614  1.0000
  H   H51       1.0  0.1589776753985911  0.1293596252554525  0.5702346838382147  1.0000
  H   H52       1.0  0.2013886916373939  0.15633616991152813  0.5399424565127405  1.0000
  H   H53       1.0  0.22209473821380832  0.13842211269364404  0.49135197257795826  1.0000
  H   H54       1.0  0.2110325647045372  0.09276024473071218  0.4619148423935166  1.0000
  H   H55       1.0  0.2748300938351975  0.05101230081489919  0.5052288014219751  1.0000
  H   H56       1.0  0.28437215806766913  0.0968698493869038  0.5385549791805362  1.0000
  C   C89       1.0  0.10737593809257996  0.04821869742686642  0.6237378652899872  1.0000
  C   C90       1.0  0.0832114723435046  0.06345893533469986  0.621620677657142  1.0000
  C   C91       1.0  0.05356945074520242  0.04822200553849839  0.6329178264242458  1.0000
  C   C92       1.0  0.04770122963990731  0.016954036047878842  0.6455736752159228  1.0000
  C   C93       1.0  0.07366302875388621  0.0051220602193401115  0.6507535905894856  1.0000
  C   C94       1.0  0.10270678593652871  0.019955801367044848  0.6393187218501484  1.0000
  H   H57       1.0  0.08604080473312277  0.08603738863804397  0.610021367159914  1.0000
  H   H58       1.0  0.03442286703070437  0.059542749442617504  0.6299845965678671  1.0000
  H   H59       1.0  0.07039645878549888  0.48237098466125017  0.6629243361953846  1.0000
  H   H60       1.0  0.12098420495727427  0.008235335653402771  0.6427000554967797  1.0000
  C   C95       1.0  0.014911070266509943  0.4492815906502771  0.624173635948398  1.0000
  C   C96       1.0  0.0024963648817927153  0.4587339289745594  0.6486672357862451  1.0000
  C   C97       1.0  0.47728063733355564  0.43602698495750647  0.6616560791376511  1.0000
  C   C98       1.0  0.46334054866160945  0.4051579704566661  0.6500896569920012  1.0000
  C   C99       1.0  0.4749670674115214  0.3955893448161697  0.626461431905055  1.0000
  C   C100      1.0  0.002135436355689211  0.4171560402951467  0.6144695167108623  1.0000
  C   C101      1.0  0.013514498387601761  0.496866694310387  0.6579766948048426  1.0000
  C   C102      1.0  0.4843005484907162  0.009582457171547942  0.646656935296029  1.0000
  C   C103      1.0  0.4626495248633642  0.018482284585898748  0.6632491086672191  1.0000
  C   C104      1.0  0.43902318990117456  0.03027530938677483  0.652338398031159  1.0000
  C   C105      1.0  0.436547949815783  0.033832406325895494  0.6244757976785226  1.0000
  C   C106      1.0  0.45665637003869686  0.022511628635222224  0.6075259634839199  1.0000
  C   C107      1.0  0.48013870675652226  0.010852422940139888  0.6184613403836635  1.0000
  C   C108      1.0  0.021798683838222196  0.4795478754055958  0.7086268117572082  1.0000
  C   C109      1.0  0.022465936247912564  0.48573835499175566  0.7359837537043302  1.0000
  C   C110      1.0  0.022622856731153666  0.016090341388091615  0.7464751378577686  1.0000
  C   C111      1.0  0.02730333045784262  0.04239301164132961  0.7276527231451835  1.0000
  C   C112      1.0  0.02381470234998968  0.03570719117556661  0.7004890002635832  1.0000
  C   C113      1.0  0.019952839740750877  0.0039395470169311915  0.6899318394069884  1.0000
  C   C114      1.0  0.018781687959538492  0.020797243303405683  0.7783788944105735  1.0000
  C   C115      1.0  0.4578880844531506  0.4296842572214478  0.8184924057260808  1.0000
  C   C116      1.0  0.4872423731171931  0.4471495616872824  0.8294503933675345  1.0000
  C   C117      1.0  0.005143896660781537  0.4767398658396162  0.8176866411124155  1.0000
  C   C118      1.0  0.49643395111589983  0.4877985017565925  0.7929114347641802  1.0000
  C   C119      1.0  0.4661144374074869  0.47022480302152686  0.7827222123408665  1.0000
  C   C120      1.0  0.44716281305207606  0.4411427128468909  0.7951149543199181  1.0000
  C   C121      1.0  0.49909792713366496  0.04652254273498736  0.7861035459874977  1.0000
  C   C122      1.0  0.4767579631026202  0.05332755254220771  0.7688474390188232  1.0000
  C   C123      1.0  0.4628002303384003  0.07847642798971063  0.7754518311201157  1.0000
  C   C124      1.0  0.4698917113818741  0.09618277242074208  0.7997419342825728  1.0000
  C   C125      1.0  0.48993577858604653  0.08743813205368733  0.8180525240237227  1.0000
  C   C126      1.0  0.003630574858616076  0.06260686880486047  0.8116557396417674  1.0000
  C   C127      1.0  0.07168276982420164  0.0690209267620609  0.7858815496143451  1.0000
  C   C128      1.0  0.10400472488988306  0.08155451956387849  0.7935301468782446  1.0000
  C   C129      1.0  0.12037793110289007  0.05969413009159327  0.8021037290302807  1.0000
  C   C130      1.0  0.1050700964856184  0.025460358255270436  0.8012815202408263  1.0000
  C   C131      1.0  0.07379387072641945  0.01310619331589157  0.7930470992144403  1.0000
  C   C132      1.0  0.055834529347342954  0.034870433249940234  0.7863707638440705  1.0000
  H   H61       1.0  0.03261972330579569  0.46653816597340175  0.6121570544905217  1.0000
  H   H62       1.0  0.4653943386430623  0.44258428347657885  0.6793561788526311  1.0000
  H   H63       1.0  0.44332511817356557  0.3886317577078759  0.6597136108725652  1.0000
  H   H64       1.0  0.012130502061782544  0.41059950100958187  0.5958629318055089  1.0000
  H   H65       1.0  0.4610408752692248  0.013938498546790315  0.6853377477959118  1.0000
  H   H66       1.0  0.42385542417890837  0.04072419813350739  0.6652121321520416  1.0000
  H   H67       1.0  0.45637064496807306  0.02527564096876981  0.5854064915256224  1.0000
  H   H68       1.0  0.4953234103909794  0.003303415672180697  0.6041405187933413  1.0000
  H   H69       1.0  0.02160736384909956  0.45453630677402407  0.7017428686675012  1.0000
  H   H70       1.0  0.02019887128055131  0.4645336546689559  0.7494022011482263  1.0000
  H   H71       1.0  0.030456541269776545  0.06740642400366545  0.7349313264538285  1.0000
  H   H72       1.0  0.02390088652769751  0.05618452580124633  0.6866142269415398  1.0000
  H   H73       1.0  0.49423212376956027  0.4371845669558856  0.8480302564872306  1.0000
  H   H74       1.0  0.02708157975354653  0.4895901563120093  0.8280937488649346  1.0000
  H   H75       1.0  0.45805424885322915  0.47772824027429817  0.764047795210383  1.0000
  H   H76       1.0  0.42366064644059814  0.4290595953019442  0.7867448688432722  1.0000
  H   H77       1.0  0.4689685121113965  0.04045165283746202  0.7493775348845427  1.0000
  H   H78       1.0  0.4470558987616045  0.08475137405710052  0.7604136323609945  1.0000
  H   H79       1.0  0.49672766449969463  0.10154879796422264  0.836953048571306  1.0000
  H   H80       1.0  0.01966819645458351  0.05679837323056625  0.8265623849945758  1.0000
  H   H81       1.0  0.060064389099889565  0.08668659762029314  0.7790304948762161  1.0000
  H   H82       1.0  0.11524880780020373  0.10901900249024439  0.7931539863570694  1.0000
  H   H83       1.0  0.11742208729422046  0.007585467732495836  0.8079434669573806  1.0000
  H   H84       1.0  0.06356801845274136  0.4855570898585024  0.7924386647102439  1.0000
  C   C133      1.0  0.2408469227904166  0.3098582808303029  0.4529918215059625  1.0000
  C   C134      1.0  0.23053902655264646  0.33393889419551215  0.46558806016040416  1.0000
  C   C135      1.0  0.22436224879468825  0.35893856732837987  0.45069991450535835  1.0000
  C   C136      1.0  0.23232974405365053  0.3626586275854049  0.4226255953894374  1.0000
  C   C137      1.0  0.24362435974218838  0.338310052071129  0.41041785038801293  1.0000
  C   C138      1.0  0.24705560899259324  0.3116295147527587  0.42559376911936775  1.0000
  H   H85       1.0  0.2233434839423227  0.33030085187188635  0.48696754420819255  1.0000
  H   H86       1.0  0.21370493216294714  0.3759739107157775  0.46094669154393403  1.0000
  H   H87       1.0  0.2476008809712778  0.3391316310300076  0.38833948886918823  1.0000
  H   H88       1.0  0.25433845843697794  0.2928774648097474  0.4151147180977713  1.0000
  C   C139      1.0  0.28456147179424485  0.4114431369464551  0.3887362046101  1.0000
  C   C140      1.0  0.25258396792673055  0.4071014922566324  0.38281835684800186  1.0000
  C   C141      1.0  0.24646617722784714  0.4182019764814809  0.35690028028242504  1.0000
  C   C142      1.0  0.2704023292007732  0.4319569254643222  0.3382402518057572  1.0000
  C   C143      1.0  0.30163837410364613  0.434290712286132  0.34446848338587427  1.0000
  C   C144      1.0  0.3086852495447392  0.423640214282465  0.3697308484418612  1.0000
  C   C145      1.0  0.22451007324902397  0.3908692882304531  0.40433761638999755  1.0000
  C   C146      1.0  0.22397082352130518  0.4245498029378991  0.41936964858319786  1.0000
  C   C147      1.0  0.2031444279481224  0.44194865443231196  0.4104322390418284  1.0000
  C   C148      1.0  0.198558932938593  0.4677828926316372  0.4262679803267204  1.0000
  C   C149      1.0  0.21798914080013163  0.47977133193511873  0.44831962005988785  1.0000
  C   C150      1.0  0.24052250574078005  0.46446948351189155  0.455937384494183  1.0000
  C   C151      1.0  0.24387949253650565  0.4377787430221514  0.44121368059702804  1.0000
  C   C152      1.0  0.18636952293441528  0.35041948485995494  0.3683330934997887  1.0000
  C   C153      1.0  0.1566439107707586  0.3332275203247419  0.35967523494683373  1.0000
  C   C154      1.0  0.12995923920798014  0.33035635907834643  0.376209853702762  1.0000
  C   C155      1.0  0.1348104597626267  0.34604283432342847  0.4013509429623044  1.0000
  C   C156      1.0  0.16434241266658578  0.3648537530315964  0.40945586610435125  1.0000
  C   C157      1.0  0.19054673082330453  0.3680465741647816  0.3929829130076321  1.0000
  C   C158      1.0  0.09444058677547625  0.3153939461543104  0.36504220281999744  1.0000
  C   C159      1.0  0.08663163801290624  0.40266637508025094  0.31922872907159744  1.0000
  C   C160      1.0  0.09677675328902857  0.3787600857616587  0.3064084385220294  1.0000
  C   C161      1.0  0.09846061850366519  0.35124851644988814  0.3212143632981298  1.0000
  C   C162      1.0  0.09126801403597383  0.34725103854396355  0.3488138568381409  1.0000
  C   C163      1.0  0.08411943816542508  0.37411615903838824  0.36190547628822883  1.0000
  C   C164      1.0  0.08142923695660652  0.40121024230482155  0.3471118846439703  1.0000
  C   C165      1.0  0.06868767469600787  0.3015125276931008  0.3887793705715464  1.0000
  C   C166      1.0  0.07468563523653182  0.28201072091746693  0.4104322390418284  1.0000
  C   C167      1.0  0.054387953681267705  0.27358793539233334  0.43299775926840484  1.0000
  C   C168      1.0  0.02671322920017038  0.28314210085433206  0.434171462315351  1.0000
  C   C169      1.0  0.019020825934396527  0.29946836071691757  0.41167582983587814  1.0000
  C   C170      1.0  0.03864486639031346  0.30667812164996977  0.38936930537797987  1.0000
  C   C171      1.0  0.06276832424399047  0.2718113439087205  0.3288917378696604  1.0000
  C   C172      1.0  0.05597628321387985  0.2413909535100837  0.3162112228142997  1.0000
  C   C173      1.0  0.07363462761774572  0.21941221471053401  0.32169535543996064  1.0000
  C   C174      1.0  0.09897590127905552  0.2294318549003022  0.33916112564994605  1.0000
  C   C175      1.0  0.10559686774715414  0.2599413893371502  0.3520163600730658  1.0000
  C   C176      1.0  0.08818334045498219  0.28188023419924807  0.346994719891473  1.0000
  H   H89       1.0  0.2917115042615465  0.40433824448615674  0.40846510451305873  1.0000
  H   H90       1.0  0.22200917212107465  0.41600516228843737  0.35104204265756234  1.0000
  H   H91       1.0  0.26392411684674066  0.44056280897459005  0.31859151725977025  1.0000
  H   H92       1.0  0.3333221625182838  0.42727673112543463  0.37592824719237383  1.0000
  H   H93       1.0  0.1890446506243577  0.4360655837141999  0.39126038559372506  1.0000
  H   H94       1.0  0.18064055352476133  0.4798731710450685  0.4208187915746113  1.0000
  H   H95       1.0  0.254152254120084  0.4714494068551644  0.47429114019677915  1.0000
  H   H96       1.0  0.26131445326982267  0.425747583233631  0.44770090794582335  1.0000
  H   H97       1.0  0.20647018674079917  0.35140278838639794  0.3550893654236517  1.0000
  H   H98       1.0  0.15393599964611474  0.32184297611259893  0.33961128496217236  1.0000
  H   H99       1.0  0.11488055729065676  0.34759044789631677  0.41428428722042226  1.0000
  H   H100      1.0  0.16674296097420205  0.37595676132388656  0.4294889832594081  1.0000
  H   H101      1.0  0.10384138564527909  0.38047106751998855  0.2852488953254201  1.0000
  H   H102      1.0  0.10557495284905286  0.3317161943808691  0.3109326423860024  1.0000
  H   H103      1.0  0.07835836722170317  0.3731197828984542  0.38364262115942993  1.0000
  H   H104      1.0  0.07432297505352314  0.420689270960054  0.35822403643344664  1.0000
  H   H105      1.0  0.09781759618609576  0.2778273957765566  0.41081045508497743  1.0000
  H   H106      1.0  0.060637573794862246  0.25923780642302957  0.45004214747379484  1.0000
  H   H107      1.0  0.4970245412409921  0.3059875970311491  0.41136750153983276  1.0000
  H   H108      1.0  0.03312616535937701  0.31881518350655774  0.3716630390970791  1.0000
  H   H109      1.0  0.046934043407206305  0.2869565854743537  0.32564401315131547  1.0000
  H   H110      1.0  0.03536363631717916  0.23290862214303157  0.3024865025963319  1.0000
  H   H111      1.0  0.1145928152826431  0.2141940125833078  0.3429823409989355  1.0000
  H   H112      1.0  0.12559581628013064  0.26390119222434566  0.36548414004432916  1.0000
  C   C177      1.0  0.24672209999393824  0.32822614467879346  0.9917831857134668  1.0000
  C   C178      1.0  0.24831398522337997  0.32820105141573686  0.01961906428044613  1.0000
  C   C179      1.0  0.23918307296808866  0.3516927499238543  0.0345921737421235  1.0000
  C   C180      1.0  0.22809907340019253  0.3754236472687002  0.021316925430669542  1.0000
  C   C181      1.0  0.22296341846065817  0.3715585097705354  0.9934748802977693  1.0000
  C   C182      1.0  0.23296748641889592  0.3488133384623665  0.978753231922588  1.0000
  H   H113      1.0  0.25934014715095516  0.31152695146255854  0.029806231181786158  1.0000
  H   H114      1.0  0.2419116480853084  0.35319593496270324  0.057041762529386836  1.0000
  H   H115      1.0  0.21224869372341268  0.3878966747860697  0.9816083519439684  1.0000
  H   H116      1.0  0.2325320465439189  0.34889153643108434  0.956405597025217  1.0000
  C   C183      1.0  0.24411422583504014  0.4496397768666545  0.9998552205039356  1.0000
  C   C184      1.0  0.22044320747232413  0.43769803960633263  0.01987806004912418  1.0000
  C   C185      1.0  0.19874792422078782  0.45615026136675585  0.024946977236110834  1.0000
  C   C186      1.0  0.19880699368229124  0.48319645781636944  0.00879057452333143  1.0000
  C   C187      1.0  0.22107536417636178  0.4930648177413454  0.9877235298155357  1.0000
  C   C188      1.0  0.24470654659444732  0.47754671210250366  0.9848951315798125  1.0000
  C   C189      1.0  0.21787953353428466  0.4039864419432362  0.03728244090121835  1.0000
  C   C190      1.0  0.24265422064732728  0.4207966674483034  0.06112074033387019  1.0000
  C   C191      1.0  0.2321983398950949  0.4360109149247177  0.08332798308044184  1.0000
  C   C192      1.0  0.25357511012141415  0.45620740229519724  0.101190469031339  1.0000
  C   C193      1.0  0.2859761562626792  0.4630020002098978  0.0963560869015444  1.0000
  C   C194      1.0  0.2971504710486686  0.4479422906870419  0.0752255265647633  1.0000
  C   C195      1.0  0.276009096220792  0.42814697074226854  0.0569951021805853  1.0000
  C   C196      1.0  0.1571274680691373  0.3813784554869121  0.028285144921295524  1.0000
  C   C197      1.0  0.12626805304277458  0.36730474709904065  0.035793420783516404  1.0000
  C   C198      1.0  0.11806860135066646  0.3520537823782386  0.06135095879491743  1.0000
  C   C199      1.0  0.14314318484098806  0.35158509557329964  0.07902104788908225  1.0000
  C   C200      1.0  0.17476513434862767  0.3666604547376246  0.07144912159479919  1.0000
  C   C201      1.0  0.1824277161634396  0.3834995603981637  0.04621121725029856  1.0000
  C   C202      1.0  0.08070459585810068  0.33854251107977407  0.07033215095432536  1.0000
  C   C203      1.0  0.06819331476976304  0.4285953396048565  0.10900741354487947  1.0000
  C   C204      1.0  0.0677016545226302  0.425476638033056  0.08058879449837446  1.0000
  C   C205      1.0  0.07287529771087807  0.39774433280896865  0.06878187628180907  1.0000
  C   C206      1.0  0.07745592402014471  0.37177840556333613  0.08453416337457147  1.0000
  C   C207      1.0  0.08012297168814135  0.37632813699643514  0.1129081775942486  1.0000
  C   C208      1.0  0.0748969253969032  0.40423298898469223  0.12498313587617613  1.0000
  C   C209      1.0  0.06923263099749351  0.30620306119021995  0.089216436878317  1.0000
  C   C210      1.0  0.08413478256722713  0.28082475515086075  0.08709287712735361  1.0000
  C   C211      1.0  0.07140689825296292  0.25014568724412073  0.10035942149739796  1.0000
  C   C212      1.0  0.044122990856894716  0.24428069015563  0.11628848347989305  1.0000
  C   C213      1.0  0.029157230378995622  0.26865703642345096  0.11816126955007285  1.0000
  C   C214      1.0  0.04090619745229734  0.2988695367947191  0.1047105504111907  1.0000
  C   C215      1.0  0.02589445676898786  0.33103131586074835  0.0465933387851975  1.0000
  C   C216      1.0  0.007318607689839608  0.3251759052997486  0.023783551799032576  1.0000
  C   C217      1.0  0.016631663717903127  0.31133200707047004  0.0009261474521999878  1.0000
  C   C218      1.0  0.044355738447878525  0.30179531436627105  0.0011810321769307741  1.0000
  C   C219      1.0  0.06312911119706459  0.30778921327872216  0.02448037374809542  1.0000
  C   C220      1.0  0.0554698020037681  0.3255446635850549  0.04647144633216089  1.0000
  H   H117      1.0  0.26293064884274525  0.4378138879444051  0.9961573364733644  1.0000
  H   H118      1.0  0.1811473402355938  0.4485105721209966  0.04112010042599683  1.0000
  H   H119      1.0  0.18290181766942126  0.4977616879734818  0.013627217727296912  1.0000
  H   H120      1.0  0.2637388375700391  0.48616939223778644  0.9696472695793804  1.0000
  H   H121      1.0  0.20616836438553288  0.43071093844495234  0.08582852556137008  1.0000
  H   H122      1.0  0.24595443459287208  0.46964826738105603  0.11796969490212997  1.0000
  H   H123      1.0  0.32253297572187584  0.4515575342004957  0.07129886293852639  1.0000
  H   H124      1.0  0.28395071554308565  0.4172879115672523  0.039740845181687044  1.0000
  H   H125      1.0  0.1633487666199932  0.3925803806591831  0.00770114787730436  1.0000
  H   H126      1.0  0.10810400172556171  0.368742810920504  0.021111373233305697  1.0000
  H   H127      1.0  0.13721543840455225  0.338122112768646  0.09830533838914346  1.0000
  H   H128      1.0  0.19451832278739015  0.36663091168409484  0.08519912473304272  1.0000
  H   H129      1.0  0.06327123624468713  0.44497082551576234  0.06731197251846194  1.0000
  H   H130      1.0  0.07321517954349409  0.39692799337492163  0.04624081676671892  1.0000
  H   H131      1.0  0.08500406335543965  0.35713593568719204  0.12612374501934676  1.0000
  H   H132      1.0  0.0759911082211524  0.40677947414069077  0.14751679551216118  1.0000
  H   H133      1.0  0.10575670167897568  0.28351288012133663  0.07458708143975196  1.0000
  H   H134      1.0  0.0821663435622961  0.23004293978594453  0.09755260624239794  1.0000
  H   H135      1.0  0.0070426771406010965  0.26521009083333263  0.12979881275601063  1.0000
  H   H136      1.0  0.029367586533057724  0.3177152106439467  0.1080663955853489  1.0000
  H   H137      1.0  0.01883611617739676  0.3430606810067096  0.06427617211559887  1.0000
  H   H138      1.0  0.48404244024023607  0.32965137799388566  0.024675648335590772  1.0000
  H   H139      1.0  0.0527466115261647  0.289268624529969  0.9840318123508853  1.0000
  H   H140      1.0  0.08598412700782034  0.3020663895364505  0.024996309763477775  1.0000
  C   C221      1.0  0.38399483470192414  0.4927181149010133  0.31921434041778196  1.0000
  C   C222      1.0  0.3932284823373446  0.019864186776016708  0.3017752919934538  1.0000
  C   C223      1.0  0.42384976265292895  0.0317066751242331  0.29278649440274346  1.0000
  C   C224      1.0  0.4460254926746979  0.01463287487690265  0.2969962034047501  1.0000
  C   C225      1.0  0.43556293163895504  0.48516430884208933  0.31214745587242126  1.0000
  C   C226      1.0  0.40547453106932685  0.4752808346425713  0.3241702038962185  1.0000
  H   H141      1.0  0.3781472130433352  0.03557560244334832  0.29681120642712283  1.0000
  H   H142      1.0  0.4297699089742322  0.055450190464293024  0.2824410523094333  1.0000
  H   H143      1.0  0.45064665750499844  0.46935483149173757  0.3168854340216523  1.0000
  H   H144      1.0  0.39980446670398406  0.4534451950639212  0.3375187635930109  1.0000
  C   C227      1.0  0.011232046619877737  0.4943867972537732  0.3090703394778881  1.0000
  C   C228      1.0  0.49985922951103706  0.0009428455876652333  0.28332287123612315  1.0000
  C   C229      1.0  0.006483829562986086  0.48327014652751793  0.2607861283171776  1.0000
  C   C230      1.0  0.023147754817316995  0.46045022449471507  0.26397629842026077  1.0000
  C   C231      1.0  0.032091163511020294  0.4531182128557352  0.28949560372295213  1.0000
  C   C232      1.0  0.026926039811318202  0.4703733615269345  0.31199123620242497  1.0000
  C   C233      1.0  0.4817985126851154  0.029231895747510808  0.28207928044207337  1.0000
  C   C234      1.0  0.005030226211591234  0.062262038307803996  0.29726958782724366  1.0000
  C   C235      1.0  0.03778679369922533  0.07283565658741391  0.2914832934714582  1.0000
  C   C236      1.0  0.05764285084422676  0.10259781392896838  0.3014854633951711  1.0000
  C   C237      1.0  0.04514895650066268  0.12208511113970903  0.31866346052884753  1.0000
  C   C238      1.0  0.01294135593328921  0.1108548894553382  0.3254281833440837  1.0000
  C   C239      1.0  0.49296440586238854  0.08172522955891437  0.3145770828452591  1.0000
  C   C240      1.0  0.452379872879947  0.01492463847862798  0.23554842952487437  1.0000
  C   C241      1.0  0.44745095206929253  0.019900429635708775  0.20870331254918773  1.0000
  C   C242      1.0  0.4653357631712415  0.04737389947777617  0.19423901552510564  1.0000
  C   C243      1.0  0.4890332634207064  0.07050156487367555  0.20909797276812583  1.0000
  C   C244      1.0  0.4939145414136567  0.06685926776132836  0.23611164254565065  1.0000
  C   C245      1.0  0.4758503407694939  0.038107222877796526  0.2503522987790011  1.0000
  C   C246      1.0  0.46164153244589184  0.0512716064477055  0.16174820189663028  1.0000
  C   C247      1.0  0.025307750607963655  0.49751346046551875  0.1256665969324101  1.0000
  C   C248      1.0  0.4961194638906281  0.4803987491482288  0.13673969380438744  1.0000
  C   C249      1.0  0.4769717119678189  0.4970861886247101  0.1479285165634805  1.0000
  C   C250      1.0  0.4863737815351274  0.0317483516553712  0.1503484825830422  1.0000
  C   C251      1.0  0.01792042602176419  0.04770489743283375  0.14395108154449476  1.0000
  C   C252      1.0  0.036770600273971596  0.031298725907679716  0.130294810208249  1.0000
  C   C253      1.0  0.4694916104908922  0.08845096642275449  0.15028537805845157  1.0000
  C   C254      1.0  0.46543667897839036  0.11408355315239643  0.16667035481469916  1.0000
  C   C255      1.0  0.4741789364801368  0.14617881179074174  0.15677157764626007  1.0000
  C   C256      1.0  0.4871949209583544  0.15379570493597422  0.13126193329684477  1.0000
  C   C257      1.0  0.49022023305190104  0.12807006070887844  0.11460213325272205  1.0000
  C   C258      1.0  0.48019507802241185  0.09597929767531081  0.12388281496368876  1.0000
  C   C259      1.0  0.4184927953945453  0.019360775910166637  0.12537306839457488  1.0000
  C   C260      1.0  0.3882402013103329  3.087027799733922e-05  0.11920280253411424  1.0000
  C   C261      1.0  0.36401175532419755  0.4984742175093605  0.13746200422592314  1.0000
  C   C262      1.0  0.36907004125338483  0.019328773374260547  0.16037881315779395  1.0000
  C   C263      1.0  0.4001877442555975  0.038080832602521854  0.16665678836967315  1.0000
  C   C264      1.0  0.4256240581152922  0.035395048025484585  0.15066379965379798  1.0000
  H   H145      1.0  0.007081432716078034  0.00659307800568903  0.3272349871589098  1.0000
  H   H146      1.0  0.49884074600559836  0.4867965691747263  0.23967591764793553  1.0000
  H   H147      1.0  0.02784124205879918  0.44658997683502144  0.24634197540843722  1.0000
  H   H148      1.0  0.0338584107741291  0.4648281278787881  0.3322669049503708  1.0000
  H   H149      1.0  0.047778895040474736  0.05861316955141855  0.27792095948940765  1.0000
  H   H150      1.0  0.08222543091841542  0.11107355084860723  0.2946857967063831  1.0000
  H   H151      1.0  0.0027518816400881  0.12688148751207426  0.3378599802406344  1.0000
  H   H152      1.0  0.46783050254884  0.07451727021679151  0.3206490947553799  1.0000
  H   H153      1.0  0.4391159421668571  0.49244470381393196  0.2459144268379209  1.0000
  H   H154      1.0  0.4301094585465166  0.49987594126216  0.19781521265483762  1.0000
  H   H155      1.0  0.0046915984091769275  0.09203903937941456  0.19837328687067984  1.0000
  H   H156      1.0  0.01282780613149938  0.08586455465871687  0.24505727417491469  1.0000
  H   H157      1.0  0.4869463937721425  0.4531150733314236  0.13440050979838963  1.0000
  H   H158      1.0  0.45283871016026267  0.48297110359063505  0.1541995030006493  1.0000
  H   H159      1.0  0.028182264178715402  0.07366093207166395  0.14890160066579977  1.0000
  H   H160      1.0  0.06123453941878897  0.043659791409157885  0.12388384272467558  1.0000
  H   H161      1.0  0.4550713764286718  0.10858912248604033  0.18722290237249378  1.0000
  H   H162      1.0  0.47127819993664033  0.16610388686620342  0.1698506584123088  1.0000
  H   H163      1.0  0.4997564187485343  0.1333319350942624  0.09403458038451987  1.0000
  H   H164      1.0  0.4810039148164235  0.0759451219095762  0.11009704574310394  1.0000
  H   H165      1.0  0.4381332804125483  0.020289230972766935  0.11117619477926287  1.0000
  H   H166      1.0  0.3834423014379831  0.4858121547509541  0.10074421521086263  1.0000
  H   H167      1.0  0.35093274175393296  0.018492215408423142  0.17539460672740256  1.0000
  H   H168      1.0  0.40464989726759315  0.05270541907793759  0.18544179258233814  1.0000
  C   C265      1.0  0.49829033414413504  0.18934028680569195  0.119511336382357  1.0000
  C   C266      1.0  0.030678148286641633  0.21053670618936715  0.13129297167864667  1.0000
  H   H169      1.0  0.0008732245340219404  0.18822382588315062  0.0965848664972101  1.0000
  H   H170      1.0  0.4803618266927836  0.20186515600775615  0.12379627748859867  1.0000
  H   H171      1.0  0.0271109500995211  0.21458814418920477  0.1526706057566588  1.0000
  H   H172      1.0  0.04775769182834638  0.19554070296099152  0.12998278197265106  1.0000
  C   C267      1.0  0.3113973441594966  0.4892150486123629  0.1131402460250721  1.0000
  C   C268      1.0  0.33206284625330645  0.4743214880621209  0.13234396006376678  1.0000
  H   H173      1.0  0.3270683093998905  0.00708042341560488  0.09805230363418888  1.0000
  H   H174      1.0  0.3001235288012372  0.00544354167980585  0.12510461722481803  1.0000
  H   H175      1.0  0.3359788842119222  0.45164011229695333  0.1236318357307078  1.0000
  H   H176      1.0  0.3193354758828162  0.4645722202040217  0.15176905381902203  1.0000
  C   C269      1.0  0.060975854564815135  0.45781524292558073  0.12390645346638558  1.0000
  C   C270      1.0  0.043644334221871146  0.478800070682681  0.10800555213492928  1.0000
  H   H177      1.0  0.047990105924667945  0.4485546338825068  0.14310852308750135  1.0000
  H   H178      1.0  0.08389926423522022  0.4742500418609933  0.13193408898222375  1.0000
  H   H179      1.0  0.06188285984540672  0.49664303987416464  0.09491578265461764  1.0000
  H   H180      1.0  0.025919377120868697  0.4633894617663331  0.09351658884716359  1.0000
  C   C271      1.0  0.35115283981292955  0.4821372608567187  0.3328527287128571  1.0000
  C   C272      1.0  0.3289195576454377  0.4478003671722222  0.3240982606271412  1.0000
  H   H181      1.0  0.3541029104529271  0.48082338365362387  0.3554655259448271  1.0000
  H   H182      1.0  0.3391596544948182  0.0017118340496023682  0.32981672275779667  1.0000
  H   H183      1.0  0.3217604816299197  0.45045166406620596  0.3029901054798727  1.0000
  H   H184      1.0  0.3426983539599158  0.4294261210736806  0.3225052310975733  1.0000
  C   C273      1.0  0.0651704712158945  0.18440220404651406  0.309370445686039  1.0000
  C   C274      1.0  0.06637546363038364  0.15545915903420535  0.3291486781163649  1.0000
  H   H185      1.0  0.08250251774780812  0.18658610600065428  0.29206706171197083  1.0000
  H   H186      1.0  0.04091806506266636  0.17841285402926266  0.2992243892241715  1.0000
  H   H187      1.0  0.057024455225453366  0.15921359238770694  0.34969567576483074  1.0000
  H   H188      1.0  0.09107607467270394  0.15550369767064157  0.33143852959499553  1.0000
  C   C275      1.0  0.043981764198241693  0.42207763808332  0.2947947393709858  1.0000
  C   C276      1.0  0.07970398610103323  0.43129785454562797  0.30279071984843003  1.0000
  H   H189      1.0  0.030329922988757276  0.40601308712524364  0.3116705747745377  1.0000
  H   H190      1.0  0.039027291060836786  0.4048222472988857  0.27654375976707146  1.0000
  H   H191      1.0  0.09370976553100606  0.43571253471580873  0.2836126998344058  1.0000
  H   H192      1.0  0.08762876692683735  0.4561226269730566  0.313351991748972  1.0000
  C   C277      1.0  0.2387931451757894  0.04184861264058091  0.45888294748240344  1.0000
  C   C278      1.0  0.21347976872667992  0.007951444067056277  0.4665664886198549  1.0000
  H   H193      1.0  0.23253401569924192  0.05160469853220533  0.43889299628879297  1.0000
  H   H194      1.0  0.26230121168821086  0.03875761348940622  0.4546136283431614  1.0000
  H   H195      1.0  0.1888033163465911  0.010269709018536457  0.4649076823871306  1.0000
  H   H196      1.0  0.2162935804728805  0.0020772330174678704  0.4890641766213013  1.0000
  C   C279      1.0  0.47949114690070155  0.24450782898703485  0.46008953888092774  1.0000
  C   C280      1.0  0.006512278900083356  0.2773007467495285  0.45984698728803874  1.0000
  H   H197      1.0  0.48854917008292736  0.22353635795029345  0.4555817791927439  1.0000
  H   H198      1.0  0.4628187074280254  0.2445911499946723  0.44286837578580507  1.0000
  H   H199      1.0  0.4979769412781571  0.29911858700628036  0.46326326480822183  1.0000
  H   H200      1.0  0.023031427147451187  0.2785962465341164  0.4771359826082914  1.0000
  C   C281      1.0  0.24101203482157693  0.2788657154129349  0.4686713431208582  1.0000
  C   C282      1.0  0.27041777252243837  0.2850259256623658  0.48700248808174434  1.0000
  H   H201      1.0  0.23822724825662425  0.25765523600754026  0.4537503091142342  1.0000
  H   H202      1.0  0.2188003470213764  0.271133086509647  0.48117713880845986  1.0000
  H   H203      1.0  0.2729796448742382  0.3048332332155791  0.5026100664275628  1.0000
  H   H204      1.0  0.29205557467520693  0.2938428761996477  0.4743630834658564  1.0000
  C   C283      1.0  0.4149531843120268  0.05401754818582621  0.6126853236377462  1.0000
  C   C284      1.0  0.43732098187984153  0.08995281240910982  0.6077171270274679  1.0000
  H   H205      1.0  0.4054565800268383  0.04383329347301572  0.5928248703284748  1.0000
  H   H206      1.0  0.3959579120547073  0.05378826875086906  0.6278468537152856  1.0000
  H   H207      1.0  0.45658239529443717  0.08982669210110103  0.5929235353832094  1.0000
  H   H208      1.0  0.4502110835485016  0.09961126420671867  0.6264573208611077  1.0000
  C   C285      1.0  0.13803346424528867  0.06069432311327319  0.6074704643906316  1.0000
  C   C286      1.0  0.16034997544435506  0.09500322353859844  0.617221860633561  1.0000
  H   H209      1.0  0.15138650860580127  0.04172730641347011  0.6065886454639418  1.0000
  H   H210      1.0  0.1321536616997661  0.06446870254728204  0.5858710394916642  1.0000
  H   H211      1.0  0.1687830136460477  0.09145334552098373  0.6379333000399177  1.0000
  H   H212      1.0  0.14600530498015546  0.11226328968342843  0.6194870458485079  1.0000
  C   C287      1.0  0.45359652237630355  0.3301422968970273  0.6276495236058166  1.0000
  C   C288      1.0  0.4585487171633652  0.36264733016126455  0.6116575626509282  1.0000
  H   H213      1.0  0.47624474057606253  0.3299940254100708  0.638066908968204  1.0000
  H   H214      1.0  0.4359245935818997  0.3292300316736346  0.6448974084865965  1.0000
  H   H215      1.0  0.43565539972309025  0.3643272397737857  0.6053676654116019  1.0000
  H   H216      1.0  0.472003668598102  0.36127052681074934  0.5925103754665085  1.0000
  C   C289      1.0  0.4699817998855418  0.27372045630851954  0.9776905270622183  1.0000
  C   C290      1.0  0.4972555011459484  0.30714572337262924  0.9749690159691241  1.0000
  H   H217      1.0  0.45318609565989615  0.27311691366144103  0.9951007981789154  1.0000
  H   H218      1.0  0.4797832812349389  0.2524006621575325  0.9818961250202776  1.0000
  H   H219      1.0  0.011986705123328032  0.3086133421292645  0.9564384853767952  1.0000
  H   H220      1.0  0.4866528844811162  0.3282024620170384  0.9725784439137853  1.0000
  C   C291      1.0  0.24131238923415047  0.05486129574491289  0.9789752282957408  1.0000
  C   C292      1.0  0.21974973295427386  0.021029035250187747  0.968401623263357  1.0000
  H   H221      1.0  0.26596889412345004  0.05317890815972304  0.9825395033980255  1.0000
  H   H222      1.0  0.2323813990840034  0.05991760077257537  0.999520170422233  1.0000
  H   H223      1.0  0.19471090634758217  0.02277281126614939  0.9673635846666708  1.0000
  H   H224      1.0  0.22628117679956966  0.01542199034148875  0.9470611941330676  1.0000
  C   C293      1.0  0.22960675809846473  0.27296414965750027  0.9656821676922365  1.0000
  C   C294      1.0  0.25734098974401204  0.3030424996828987  0.9747531861618922  1.0000
  H   H225      1.0  0.21111802070699764  0.282471896475128  0.9553387811209  1.0000
  H   H226      1.0  0.21634275392392988  0.2598708677888394  0.9835631533408964  1.0000
  H   H227      1.0  0.2754928207012511  0.2941266406294172  0.9862312208626759  1.0000
  H   H228      1.0  0.27043747820741454  0.31677556411401425  0.9565823719149497  1.0000
  C   C295      1.0  0.45803820953421076  0.12616506044523465  0.8049835153153447  1.0000
  C   C296      1.0  0.4269132377059875  0.11732076894861727  0.8234523802484645  1.0000
  H   H229      1.0  0.47768848725353236  0.1457116171239498  0.8149445747995849  1.0000
  H   H230      1.0  0.45331185342375857  0.13717756495800043  0.784695513435557  1.0000
  H   H231      1.0  0.4291026932833506  0.10007207093253259  0.8398328348563701  1.0000
  H   H232      1.0  0.40614813168687386  0.10325903645202213  0.8111254149725692  1.0000
  C   C297      1.0  0.15276538341804707  0.07208038183580605  0.8169877636413793  1.0000
  C   C298      1.0  0.17869701327265403  0.10437534551667396  0.8083319606103978  1.0000
  H   H233      1.0  0.14649317149395902  0.07377461688139494  0.838759852386132  1.0000
  H   H234      1.0  0.16489467219096932  0.05172284012014137  0.8168418215812511  1.0000
  H   H235      1.0  0.16709971383117378  0.12315889592368731  0.8012465763672745  1.0000
  H   H236      1.0  0.19269198316761735  0.09974145899322356  0.7900295929571426  1.0000
  C   C299      1.0  0.4386138795420145  0.39692633576498  0.8320917391036569  1.0000
  C   C300      1.0  0.4393402366161876  0.3652992109272371  0.8166753243013866  1.0000
  H   H237      1.0  0.4487114071986544  0.3949840993912204  0.8525277385655463  1.0000
  H   H238      1.0  0.4138271962107797  0.3978829966629206  0.8359725645898817  1.0000
  H   H239      1.0  0.46376036172590074  0.3691106687933515  0.8092487234106396  1.0000
  H   H240      1.0  0.4256131651352997  0.36391978151032967  0.7975589699465714  1.0000
  C   C301      1.0  0.42037372194231926  0.6482551321670149  0.8364206683801343  1.0000
  C   C302      1.0  0.4213748057858185  0.65207628914776  0.8644641546664508  1.0000
  C   C303      1.0  0.41355918654421764  0.6781551313055908  0.8761436305206507  1.0000
  C   C304      1.0  0.4062469841556903  0.7027951280313388  0.8606491058833823  1.0000
  C   C305      1.0  0.40383198487212146  0.6984532224255362  0.832383623223913  1.0000
  C   C306      1.0  0.41107536936432193  0.6713709302869783  0.8201697116565677  1.0000
  H   H241      1.0  0.4267172955204226  0.6339311985102106  0.8783101506808632  1.0000
  H   H242      1.0  0.41418867725694053  0.6788159920660156  0.8984254887148654  1.0000
  H   H243      1.0  0.3965253574381197  0.7154447812283791  0.818965175780017  1.0000
  H   H244      1.0  0.40854764640550933  0.6678640928863158  0.7984675106589185  1.0000
  C   C307      1.0  0.43639913258872476  0.7798649071404374  0.8444207599015257  1.0000
  C   C308      1.0  0.40778501649820537  0.7693845874471624  0.8587703587994789  1.0000
  C   C309      1.0  0.38900826574508934  0.7905452209178241  0.8596419001163006  1.0000
  C   C310      1.0  0.39939815040721177  0.8217554240742028  0.8463673392105591  1.0000
  C   C311      1.0  0.4282408903362984  0.8321545529978864  0.8322171259440485  1.0000
  C   C312      1.0  0.4462260194004539  0.8108430519044587  0.8313414735832796  1.0000
  C   C313      1.0  0.3993526804718818  0.7345384706559008  0.87487126241897  1.0000
  C   C314      1.0  0.4210882091777397  0.7483318716184584  0.9018232665372856  1.0000
  C   C315      1.0  0.4095033655659946  0.7651302031972488  0.9219920481426025  1.0000
  C   C316      1.0  0.42488625411729225  0.7738366012801075  0.9462287077337449  1.0000
  C   C317      1.0  0.4521816363966525  0.7652596686746798  0.9508988536578461  1.0000
  C   C318      1.0  0.46587211782795546  0.7519098998407722  0.9304813538937193  1.0000
  C   C319      1.0  0.4511021031850522  0.744372353864534  0.9056136490566705  1.0000
  C   C320      1.0  0.3389624259888392  0.716007945590133  0.8621003043967693  1.0000
  C   C321      1.0  0.30726956878874484  0.700845221178322  0.8679605975436057  1.0000
  C   C322      1.0  0.29768340808777866  0.6846182834636311  0.8927563591115771  1.0000
  C   C323      1.0  0.3219697348049439  0.6845584556648097  0.9114102210223242  1.0000
  C   C324      1.0  0.3532989681216462  0.6998035808309309  0.9055725386171978  1.0000
  C   C325      1.0  0.3626080893499353  0.7176294670217596  0.8817942604261761  1.0000
  C   C326      1.0  0.2611940677742404  0.668269257562345  0.9015724928565021  1.0000
  C   C327      1.0  0.2415853368606471  0.7498646892047681  0.9474003552587175  1.0000
  C   C328      1.0  0.23654084924908558  0.7487659010835441  0.9195110331204238  1.0000
  C   C329      1.0  0.24443285357920733  0.7242217115522909  0.904509833756828  1.0000
  C   C330      1.0  0.2555276089449936  0.6998171143099315  0.9172129595538986  1.0000
  C   C331      1.0  0.26459878934433556  0.7056256682240573  0.9446233450723353  1.0000
  C   C332      1.0  0.2566958204748927  0.7292798533966585  0.9599863163032911  1.0000
  C   C333      1.0  0.2537839794275978  0.635823156879368  0.9208820662768391  1.0000
  C   C334      1.0  0.27054524635826105  0.6120603375307715  0.9180516125191422  1.0000
  C   C335      1.0  0.26442409221583774  0.5850982981402137  0.9356242698717567  1.0000
  C   C336      1.0  0.24326830850213943  0.5819659737019595  0.957349081611116  1.0000
  C   C337      1.0  0.22498917574427407  0.6035312745784184  0.9588331684760812  1.0000
  C   C338      1.0  0.22967998225214636  0.6296942550542863  0.9403930808505924  1.0000
  C   C339      1.0  0.2083419585647575  0.6527051377882471  0.8736770041522874  1.0000
  C   C340      1.0  0.1895201312541842  0.6375224080499758  0.8514465340074138  1.0000
  C   C341      1.0  0.20181577162651246  0.6215359401195364  0.8314545272918297  1.0000
  C   C342      1.0  0.23287837480991386  0.6198278237887128  0.8342747034396584  1.0000
  C   C343      1.0  0.25104510102683625  0.6342942747045653  0.8565997275953192  1.0000
  C   C344      1.0  0.240295729309005  0.6529693301437466  0.8758640795322362  1.0000
  H   H245      1.0  0.4528969230177376  0.7655053854080396  0.8438739910565386  1.0000
  H   H246      1.0  0.36604862330652277  0.7831510442129808  0.8703450030330234  1.0000
  H   H247      1.0  0.38418296113241385  0.8382366688029832  0.8471052715990943  1.0000
  H   H248      1.0  0.4684890550863339  0.8166026610875287  0.8206404261885304  1.0000
  H   H249      1.0  0.3873084599540044  0.7706443141700503  0.9186888243309694  1.0000
  H   H250      1.0  0.4146628964186362  0.7855654719935691  0.9621672251173189  1.0000
  H   H251      1.0  0.48900827271419145  0.7478074356573744  0.9326314298781426  1.0000
  H   H252      1.0  0.46279160401029584  0.7347124763429423  0.888939254806535  1.0000
  H   H253      1.0  0.34677496832860083  0.7278351104559004  0.8424680140265715  1.0000
  H   H254      1.0  0.2886234758013717  0.7014543782299332  0.8532430602123716  1.0000
  H   H255      1.0  0.3164340145494368  0.6720982358422717  0.9310014009530493  1.0000
  H   H256      1.0  0.3706449833789216  0.699523115428794  0.9210506190786771  1.0000
  H   H257      1.0  0.22455761988384532  0.7651751306645831  0.9102488511072198  1.0000
  H   H258      1.0  0.23917742478371212  0.7227847208693425  0.8829494637753595  1.0000
  H   H259      1.0  0.2776827017760689  0.6909017158371993  0.9548824552427528  1.0000
  H   H260      1.0  0.26194956468502995  0.7322066181692919  0.9819475130696185  1.0000
  H   H261      1.0  0.28714306049404065  0.6129501224063201  0.9015971591201858  1.0000
  H   H262      1.0  0.27858885438396697  0.5683989856934083  0.9342018486660005  1.0000
  H   H263      1.0  0.20567990213479984  0.5996686997667247  0.974076919432566  1.0000
  H   H264      1.0  0.21368450140696926  0.6454049143513385  0.9415010071943821  1.0000
  H   H265      1.0  0.19756181420913485  0.6643151742908068  0.8890276422514014  1.0000
  H   H266      1.0  0.1643814505024329  0.636532838215442  0.8505503264269083  1.0000
  H   H267      1.0  0.24375007904616308  0.6054379334447868  0.8199949922888087  1.0000
  H   H268      1.0  0.27525709502026036  0.6328763614218921  0.8584435308056707  1.0000
  C   C345      1.0  0.42113485215151675  0.614992798093587  0.5964282003482587  1.0000
  C   C346      1.0  0.418072704820801  0.6404298829804792  0.6133307575374679  1.0000
  C   C347      1.0  0.41080309742374954  0.667448689329217  0.602808540554425  1.0000
  C   C348      1.0  0.4095629911222905  0.671965612302037  0.574469059103905  1.0000
  C   C349      1.0  0.4114727288277703  0.645000207712624  0.5574637258160141  1.0000
  C   C350      1.0  0.4145802671686006  0.6159494801958079  0.5685532668637805  1.0000
  H   H269      1.0  0.4235321242052359  0.6395720087933889  0.6350144588373545  1.0000
  H   H270      1.0  0.40805924807838273  0.6852842377879845  0.6177830181323636  1.0000
  H   H271      1.0  0.40809518484147084  0.6462800295994113  0.5350893691329859  1.0000
  H   H272      1.0  0.4169358573164439  0.5968533464222986  0.5551697632934363  1.0000
  C   C351      1.0  0.4563131655095243  0.7149015752815243  0.5330153474615871  1.0000
  C   C352      1.0  0.4263271603515846  0.7191548337288565  0.5357635803403384  1.0000
  C   C353      1.0  0.4161854072694785  0.7361133130803  0.5149329206595109  1.0000
  C   C354      1.0  0.4336271280297243  0.7453348099846646  0.49103336667204467  1.0000
  C   C355      1.0  0.46214291943482944  0.7389189743172252  0.4879171953600124  1.0000
  C   C356      1.0  0.4741930118848436  0.7247451049761986  0.5098413927308144  1.0000
  C   C357      1.0  0.40522140440425164  0.7061744642257777  0.5622777582782698  1.0000
  C   C358      1.0  0.41687745048906794  0.7391683488386838  0.5808925652715177  1.0000
  C   C359      1.0  0.40210615161568386  0.7645494445168384  0.5807815670849413  1.0000
  C   C360      1.0  0.413160749111375  0.7934775029007974  0.5957190452673544  1.0000
  C   C361      1.0  0.4408218557002154  0.79885473584785  0.6108189096856848  1.0000
  C   C362      1.0  0.4566998335028672  0.774761253190112  0.6108374093834474  1.0000
  C   C363      1.0  0.44538163333379427  0.7459774750469873  0.5957087676574861  1.0000
  C   C364      1.0  0.3569341839479806  0.676776788799048  0.5310811012843956  1.0000
  C   C365      1.0  0.32491124268555815  0.6634140915542107  0.5265671750302908  1.0000
  C   C366      1.0  0.30195320855057783  0.6664113875979998  0.5451532047159079  1.0000
  C   C367      1.0  0.31219472712902246  0.6823623731001531  0.569747525130463  1.0000
  C   C368      1.0  0.34449461153221084  0.6934724690753395  0.5753549890745422  1.0000
  C   C369      1.0  0.36762521330510683  0.6920748651744958  0.5558398634568417  1.0000
  C   C370      1.0  0.26503064172027146  0.6545569887423748  0.5368858953379437  1.0000
  C   C371      1.0  0.2684349345001112  0.7517423040603807  0.5006367653328722  1.0000
  C   C372      1.0  0.27815749644762655  0.7289691490238331  0.48565612118901275  1.0000
  C   C373      1.0  0.27572891475354727  0.6976046036966412  0.4960591178975847  1.0000
  C   C374      1.0  0.26444342612905425  0.6890464694319804  0.5228877906974823  1.0000
  C   C375      1.0  0.2577214366840718  0.7138443195759576  0.5383967039885662  1.0000
  C   C376      1.0  0.2596953687282805  0.7454032361411868  0.5275106596161898  1.0000
  C   C377      1.0  0.23802765023872777  0.641051070013285  0.56046889894147  1.0000
  C   C378      1.0  0.2433350538643972  0.6236226228994076  0.5833797468596172  1.0000
  C   C379      1.0  0.21931031078907057  0.6089149782631835  0.6019349437156297  1.0000
  C   C380      1.0  0.1885149248423062  0.6101838339177066  0.5974970717745496  1.0000
  C   C381      1.0  0.18258697209925448  0.6273961256317905  0.574695166521005  1.0000
  C   C382      1.0  0.2071764011473455  0.6432226275536237  0.5574452261182513  1.0000
  C   C383      1.0  0.2331772523848253  0.619020648820719  0.4966408306161238  1.0000
  C   C384      1.0  0.22733957804500574  0.5932863600950838  0.4782665196937912  1.0000
  C   C385      1.0  0.241760162060087  0.5682762435993218  0.4810764182317517  1.0000
  C   C386      1.0  0.262767110829361  0.5701193818706048  0.5026306216472992  1.0000
  C   C387      1.0  0.2679373422513924  0.5954393932264275  0.5216606440792215  1.0000
  C   C388      1.0  0.2551945330329215  0.6220090064849477  0.5177017087579986  1.0000
  H   H273      1.0  0.46495818530818744  0.7031709433446302  0.5495232444318581  1.0000
  H   H274      1.0  0.3931201326811438  0.7397110273613272  0.5163471197773725  1.0000
  H   H275      1.0  0.42396677183284986  0.7553530549126979  0.47428086258691093  1.0000
  H   H276      1.0  0.495605226479772  0.7176775841841687  0.5066203897981267  1.0000
  H   H277      1.0  0.38093706180365017  0.7624151522069553  0.5687526524952232  1.0000
  H   H278      1.0  0.40069863761362656  0.8130133198678632  0.5952853301309172  1.0000
  H   H279      1.0  0.4776585490736211  0.7781437274677128  0.6240133052344544  1.0000
  H   H280      1.0  0.4585257797440062  0.728037384916583  0.5963809233428652  1.0000
  H   H281      1.0  0.3727567945039433  0.6726455128671327  0.5159339598606716  1.0000
  H   H282      1.0  0.31682749224208423  0.6520576821512605  0.5076255400432347  1.0000
  H   H283      1.0  0.29485893480062436  0.6849993482452321  0.5856079326790387  1.0000
  H   H284      1.0  0.3521830882167667  0.7019808378814207  0.5960047628216898  1.0000
  H   H285      1.0  0.2867682534132691  0.7329535129331808  0.46468157497003065  1.0000
  H   H286      1.0  0.28354639926837455  0.6807760913482314  0.4833416034466986  1.0000
  H   H287      1.0  0.2509829881763698  0.7087014835030572  0.559774132514381  1.0000
  H   H288      1.0  0.25288774945534914  0.7637938155837138  0.5393422440964388  1.0000
  H   H289      1.0  0.26685265629661603  0.6206401362921222  0.5854804903166733  1.0000
  H   H290      1.0  0.22391051545359764  0.596706332552203  0.6198960947212614  1.0000
  H   H291      1.0  0.15897767539859106  0.6293596252554524  0.5702346838382147  1.0000
  H   H292      1.0  0.20138869163739384  0.656336169911528  0.5399424565127405  1.0000
  H   H293      1.0  0.22209473821380835  0.6384221126936441  0.49135197257795826  1.0000
  H   H294      1.0  0.21103256470453718  0.592760244730712  0.4619148423935166  1.0000
  H   H295      1.0  0.27483009383519746  0.5510123008148992  0.5052288014219751  1.0000
  H   H296      1.0  0.28437215806766913  0.5968698493869038  0.5385549791805362  1.0000
  C   C389      1.0  0.10737593809257996  0.5482186974268665  0.6237378652899872  1.0000
  C   C390      1.0  0.08321147234350458  0.5634589353346998  0.621620677657142  1.0000
  C   C391      1.0  0.05356945074520242  0.5482220055384984  0.6329178264242458  1.0000
  C   C392      1.0  0.04770122963990729  0.5169540360478788  0.6455736752159228  1.0000
  C   C393      1.0  0.07366302875388618  0.50512206021934  0.6507535905894856  1.0000
  C   C394      1.0  0.10270678593652871  0.5199558013670449  0.6393187218501484  1.0000
  H   H297      1.0  0.08604080473312278  0.586037388638044  0.610021367159914  1.0000
  H   H298      1.0  0.034422867030704365  0.5595427494426175  0.6299845965678671  1.0000
  H   H299      1.0  0.07039645878549892  0.9823709846612503  0.6629243361953846  1.0000
  H   H300      1.0  0.12098420495727423  0.5082353356534027  0.6427000554967797  1.0000
  C   C395      1.0  0.014911070266509861  0.9492815906502767  0.624173635948398  1.0000
  C   C396      1.0  0.0024963648817927153  0.9587339289745593  0.6486672357862451  1.0000
  C   C397      1.0  0.47728063733355564  0.9360269849575064  0.6616560791376511  1.0000
  C   C398      1.0  0.4633405486616094  0.9051579704566661  0.6500896569920012  1.0000
  C   C399      1.0  0.4749670674115214  0.8955893448161696  0.626461431905055  1.0000
  C   C400      1.0  0.0021354363556891904  0.9171560402951466  0.6144695167108623  1.0000
  C   C401      1.0  0.013514498387601803  0.996866694310387  0.6579766948048426  1.0000
  C   C402      1.0  0.4843005484907162  0.5095824571715479  0.646656935296029  1.0000
  C   C403      1.0  0.46264952486336425  0.5184822845858987  0.6632491086672191  1.0000
  C   C404      1.0  0.43902318990117456  0.5302753093867748  0.652338398031159  1.0000
  C   C405      1.0  0.4365479498157828  0.5338324063258953  0.6244757976785226  1.0000
  C   C406      1.0  0.4566563700386968  0.5225116286352223  0.6075259634839199  1.0000
  C   C407      1.0  0.4801387067565222  0.5108524229401399  0.6184613403836635  1.0000
  C   C408      1.0  0.021798683838222196  0.9795478754055958  0.7086268117572082  1.0000
  C   C409      1.0  0.022465936247912585  0.9857383549917557  0.7359837537043302  1.0000
  C   C410      1.0  0.022622856731153666  0.5160903413880916  0.7464751378577686  1.0000
  C   C411      1.0  0.027303330457842608  0.5423930116413296  0.7276527231451835  1.0000
  C   C412      1.0  0.023814702349989676  0.5357071911755665  0.7004890002635832  1.0000
  C   C413      1.0  0.019952839740750877  0.5039395470169312  0.6899318394069884  1.0000
  C   C414      1.0  0.018781687959538468  0.5207972433034056  0.7783788944105735  1.0000
  C   C415      1.0  0.45788808445315066  0.9296842572214479  0.8184924057260808  1.0000
  C   C416      1.0  0.4872423731171931  0.9471495616872824  0.8294503933675345  1.0000
  C   C417      1.0  0.005143896660781598  0.9767398658396163  0.8176866411124155  1.0000
  C   C418      1.0  0.49643395111589994  0.9877985017565926  0.7929114347641802  1.0000
  C   C419      1.0  0.4661144374074869  0.9702248030215267  0.7827222123408665  1.0000
  C   C420      1.0  0.44716281305207606  0.9411427128468908  0.7951149543199181  1.0000
  C   C421      1.0  0.49909792713366485  0.5465225427349873  0.7861035459874977  1.0000
  C   C422      1.0  0.47675796310262014  0.5533275525422077  0.7688474390188232  1.0000
  C   C423      1.0  0.4628002303384003  0.5784764279897104  0.7754518311201157  1.0000
  C   C424      1.0  0.4698917113818741  0.5961827724207421  0.7997419342825728  1.0000
  C   C425      1.0  0.48993577858604653  0.5874381320536873  0.8180525240237227  1.0000
  C   C426      1.0  0.0036305748586160556  0.5626068688048604  0.8116557396417674  1.0000
  C   C427      1.0  0.07168276982420166  0.569020926762061  0.7858815496143451  1.0000
  C   C428      1.0  0.10400472488988306  0.5815545195638785  0.7935301468782446  1.0000
  C   C429      1.0  0.12037793110289007  0.5596941300915933  0.8021037290302807  1.0000
  C   C430      1.0  0.10507009648561835  0.5254603582552704  0.8012815202408263  1.0000
  C   C431      1.0  0.07379387072641945  0.5131061933158916  0.7930470992144403  1.0000
  C   C432      1.0  0.05583452934734297  0.5348704332499402  0.7863707638440705  1.0000
  H   H301      1.0  0.03261972330579569  0.9665381659734016  0.6121570544905217  1.0000
  H   H302      1.0  0.4653943386430623  0.9425842834765789  0.6793561788526311  1.0000
  H   H303      1.0  0.44332511817356557  0.8886317577078758  0.6597136108725652  1.0000
  H   H304      1.0  0.012130502061782483  0.9105995010095816  0.5958629318055089  1.0000
  H   H305      1.0  0.4610408752692248  0.5139384985467902  0.6853377477959118  1.0000
  H   H306      1.0  0.42385542417890837  0.5407241981335074  0.6652121321520416  1.0000
  H   H307      1.0  0.45637064496807306  0.5252756409687698  0.5854064915256224  1.0000
  H   H308      1.0  0.4953234103909794  0.5033034156721806  0.6041405187933413  1.0000
  H   H309      1.0  0.021607363849099538  0.954536306774024  0.7017428686675012  1.0000
  H   H310      1.0  0.02019887128055127  0.9645336546689558  0.7494022011482263  1.0000
  H   H311      1.0  0.030456541269776545  0.5674064240036655  0.7349313264538285  1.0000
  H   H312      1.0  0.02390088652769744  0.5561845258012461  0.6866142269415398  1.0000
  H   H313      1.0  0.49423212376956027  0.9371845669558856  0.8480302564872306  1.0000
  H   H314      1.0  0.02708157975354653  0.9895901563120093  0.8280937488649346  1.0000
  H   H315      1.0  0.45805424885322915  0.9777282402742982  0.764047795210383  1.0000
  H   H316      1.0  0.42366064644059814  0.9290595953019442  0.7867448688432722  1.0000
  H   H317      1.0  0.4689685121113965  0.540451652837462  0.7493775348845427  1.0000
  H   H318      1.0  0.44705589876160445  0.5847513740571003  0.7604136323609945  1.0000
  H   H319      1.0  0.49672766449969463  0.6015487979642226  0.836953048571306  1.0000
  H   H320      1.0  0.0196681964545835  0.5567983732305662  0.8265623849945758  1.0000
  H   H321      1.0  0.060064389099889544  0.5866865976202931  0.7790304948762161  1.0000
  H   H322      1.0  0.11524880780020369  0.6090190024902443  0.7931539863570694  1.0000
  H   H323      1.0  0.11742208729422043  0.5075854677324958  0.8079434669573806  1.0000
  H   H324      1.0  0.06356801845274132  0.9855570898585023  0.7924386647102439  1.0000
  C   C433      1.0  0.2408469227904166  0.8098582808303029  0.4529918215059625  1.0000
  C   C434      1.0  0.23053902655264644  0.833938894195512  0.46558806016040416  1.0000
  C   C435      1.0  0.22436224879468816  0.8589385673283796  0.45069991450535835  1.0000
  C   C436      1.0  0.23232974405365056  0.862658627585405  0.4226255953894374  1.0000
  C   C437      1.0  0.24362435974218838  0.8383100520711291  0.41041785038801293  1.0000
  C   C438      1.0  0.24705560899259324  0.8116295147527587  0.42559376911936775  1.0000
  H   H325      1.0  0.22334348394232262  0.8303008518718862  0.48696754420819255  1.0000
  H   H326      1.0  0.21370493216294714  0.8759739107157776  0.46094669154393403  1.0000
  H   H327      1.0  0.2476008809712778  0.8391316310300075  0.38833948886918823  1.0000
  H   H328      1.0  0.2543384584369779  0.7928774648097473  0.4151147180977713  1.0000
  C   C439      1.0  0.2845614717942449  0.9114431369464552  0.3887362046101  1.0000
  C   C440      1.0  0.2525839679267306  0.9071014922566324  0.38281835684800186  1.0000
  C   C441      1.0  0.24646617722784706  0.9182019764814808  0.35690028028242504  1.0000
  C   C442      1.0  0.2704023292007732  0.9319569254643222  0.3382402518057572  1.0000
  C   C443      1.0  0.30163837410364613  0.9342907122861319  0.34446848338587427  1.0000
  C   C444      1.0  0.3086852495447392  0.9236402142824651  0.3697308484418612  1.0000
  C   C445      1.0  0.22451007324902397  0.8908692882304531  0.40433761638999755  1.0000
  C   C446      1.0  0.22397082352130518  0.9245498029378991  0.41936964858319786  1.0000
  C   C447      1.0  0.20314442794812235  0.9419486544323118  0.4104322390418284  1.0000
  C   C448      1.0  0.198558932938593  0.9677828926316372  0.4262679803267204  1.0000
  C   C449      1.0  0.21798914080013163  0.9797713319351188  0.44831962005988785  1.0000
  C   C450      1.0  0.24052250574078005  0.9644694835118915  0.455937384494183  1.0000
  C   C451      1.0  0.24387949253650565  0.9377787430221514  0.44121368059702804  1.0000
  C   C452      1.0  0.1863695229344153  0.8504194848599549  0.3683330934997887  1.0000
  C   C453      1.0  0.1566439107707586  0.8332275203247419  0.35967523494683373  1.0000
  C   C454      1.0  0.12995923920798017  0.8303563590783464  0.376209853702762  1.0000
  C   C455      1.0  0.13481045976262662  0.8460428343234283  0.4013509429623044  1.0000
  C   C456      1.0  0.16434241266658578  0.8648537530315964  0.40945586610435125  1.0000
  C   C457      1.0  0.19054673082330445  0.8680465741647814  0.3929829130076321  1.0000
  C   C458      1.0  0.09444058677547622  0.8153939461543104  0.36504220281999744  1.0000
  C   C459      1.0  0.0866316380129062  0.9026663750802508  0.31922872907159744  1.0000
  C   C460      1.0  0.09677675328902859  0.8787600857616588  0.3064084385220294  1.0000
  C   C461      1.0  0.09846061850366514  0.851248516449888  0.3212143632981298  1.0000
  C   C462      1.0  0.09126801403597383  0.8472510385439636  0.3488138568381409  1.0000
  C   C463      1.0  0.08411943816542504  0.8741161590383882  0.36190547628822883  1.0000
  C   C464      1.0  0.08142923695660652  0.9012102423048215  0.3471118846439703  1.0000
  C   C465      1.0  0.06868767469600782  0.8015125276931007  0.3887793705715464  1.0000
  C   C466      1.0  0.07468563523653184  0.7820107209174669  0.4104322390418284  1.0000
  C   C467      1.0  0.05438795368126775  0.7735879353923334  0.43299775926840484  1.0000
  C   C468      1.0  0.026713229200170337  0.7831421008543319  0.434171462315351  1.0000
  C   C469      1.0  0.019020825934396444  0.7994683607169174  0.41167582983587814  1.0000
  C   C470      1.0  0.038644866390313434  0.8066781216499697  0.38936930537797987  1.0000
  C   C471      1.0  0.06276832424399043  0.7718113439087203  0.3288917378696604  1.0000
  C   C472      1.0  0.05597628321387985  0.7413909535100837  0.3162112228142997  1.0000
  C   C473      1.0  0.07363462761774571  0.719412214710534  0.32169535543996064  1.0000
  C   C474      1.0  0.09897590127905546  0.729431854900302  0.33916112564994605  1.0000
  C   C475      1.0  0.10559686774715406  0.7599413893371499  0.3520163600730658  1.0000
  C   C476      1.0  0.08818334045498213  0.7818802341992479  0.346994719891473  1.0000
  H   H329      1.0  0.2917115042615466  0.904338244486157  0.40846510451305873  1.0000
  H   H330      1.0  0.2220091721210746  0.9160051622884372  0.35104204265756234  1.0000
  H   H331      1.0  0.2639241168467406  0.9405628089745899  0.31859151725977025  1.0000
  H   H332      1.0  0.33332216251828367  0.9272767311254345  0.37592824719237383  1.0000
  H   H333      1.0  0.18904465062435763  0.9360655837141997  0.39126038559372506  1.0000
  H   H334      1.0  0.1806405535247612  0.9798731710450682  0.4208187915746113  1.0000
  H   H335      1.0  0.254152254120084  0.9714494068551643  0.47429114019677915  1.0000
  H   H336      1.0  0.2613144532698226  0.9257475832336309  0.44770090794582335  1.0000
  H   H337      1.0  0.20647018674079917  0.8514027883863979  0.3550893654236517  1.0000
  H   H338      1.0  0.15393599964611476  0.821842976112599  0.33961128496217236  1.0000
  H   H339      1.0  0.11488055729065676  0.8475904478963168  0.41428428722042226  1.0000
  H   H340      1.0  0.16674296097420205  0.8759567613238864  0.4294889832594081  1.0000
  H   H341      1.0  0.10384138564527905  0.8804710675199884  0.2852488953254201  1.0000
  H   H342      1.0  0.1055749528490529  0.8317161943808691  0.3109326423860024  1.0000
  H   H343      1.0  0.0783583672217031  0.8731197828984542  0.38364262115942993  1.0000
  H   H344      1.0  0.07432297505352313  0.9206892709600539  0.35822403643344664  1.0000
  H   H345      1.0  0.09781759618609576  0.7778273957765566  0.41081045508497743  1.0000
  H   H346      1.0  0.06063757379486226  0.7592378064230295  0.45004214747379484  1.0000
  H   H347      1.0  0.4970245412409921  0.8059875970311491  0.41136750153983276  1.0000
  H   H348      1.0  0.033126165359377006  0.8188151835065578  0.3716630390970791  1.0000
  H   H349      1.0  0.046934043407206305  0.7869565854743535  0.32564401315131547  1.0000
  H   H350      1.0  0.03536363631717917  0.7329086221430315  0.3024865025963319  1.0000
  H   H351      1.0  0.11459281528264302  0.7141940125833076  0.3429823409989355  1.0000
  H   H352      1.0  0.1255958162801307  0.7639011922243457  0.36548414004432916  1.0000
  C   C477      1.0  0.2467220999939382  0.8282261446787933  0.9917831857134668  1.0000
  C   C478      1.0  0.24831398522337994  0.8282010514157367  0.01961906428044613  1.0000
  C   C479      1.0  0.23918307296808872  0.8516927499238544  0.0345921737421235  1.0000
  C   C480      1.0  0.22809907340019253  0.8754236472687003  0.021316925430669542  1.0000
  C   C481      1.0  0.2229634184606581  0.8715585097705352  0.9934748802977693  1.0000
  C   C482      1.0  0.23296748641889592  0.8488133384623665  0.978753231922588  1.0000
  H   H353      1.0  0.2593401471509551  0.8115269514625584  0.029806231181786158  1.0000
  H   H354      1.0  0.2419116480853084  0.8531959349627032  0.057041762529386836  1.0000
  H   H355      1.0  0.21224869372341262  0.8878966747860696  0.9816083519439684  1.0000
  H   H356      1.0  0.23253204654391887  0.8488915364310843  0.956405597025217  1.0000
  C   C483      1.0  0.24411422583504014  0.9496397768666546  0.9998552205039356  1.0000
  C   C484      1.0  0.22044320747232404  0.9376980396063326  0.01987806004912418  1.0000
  C   C485      1.0  0.19874792422078782  0.9561502613667557  0.024946977236110834  1.0000
  C   C486      1.0  0.19880699368229124  0.9831964578163694  0.00879057452333143  1.0000
  C   C487      1.0  0.22107536417636173  0.9930648177413453  0.9877235298155357  1.0000
  C   C488      1.0  0.24470654659444727  0.9775467121025038  0.9848951315798125  1.0000
  C   C489      1.0  0.21787953353428466  0.9039864419432361  0.03728244090121835  1.0000
  C   C490      1.0  0.24265422064732725  0.9207966674483034  0.06112074033387019  1.0000
  C   C491      1.0  0.23219833989509484  0.9360109149247177  0.08332798308044184  1.0000
  C   C492      1.0  0.2535751101214142  0.9562074022951973  0.101190469031339  1.0000
  C   C493      1.0  0.2859761562626791  0.9630020002098978  0.0963560869015444  1.0000
  C   C494      1.0  0.2971504710486686  0.9479422906870418  0.0752255265647633  1.0000
  C   C495      1.0  0.27600909622079184  0.9281469707422683  0.0569951021805853  1.0000
  C   C496      1.0  0.1571274680691373  0.8813784554869122  0.028285144921295524  1.0000
  C   C497      1.0  0.12626805304277458  0.8673047470990406  0.035793420783516404  1.0000
  C   C498      1.0  0.11806860135066646  0.8520537823782386  0.06135095879491743  1.0000
  C   C499      1.0  0.14314318484098806  0.8515850955732996  0.07902104788908225  1.0000
  C   C500      1.0  0.17476513434862756  0.8666604547376243  0.07144912159479919  1.0000
  C   C501      1.0  0.18242771616343956  0.8834995603981637  0.04621121725029856  1.0000
  C   C502      1.0  0.08070459585810062  0.8385425110797738  0.07033215095432536  1.0000
  C   C503      1.0  0.06819331476976302  0.9285953396048565  0.10900741354487947  1.0000
  C   C504      1.0  0.06770165452263024  0.9254766380330561  0.08058879449837446  1.0000
  C   C505      1.0  0.07287529771087808  0.8977443328089686  0.06878187628180907  1.0000
  C   C506      1.0  0.07745592402014473  0.8717784055633362  0.08453416337457147  1.0000
  C   C507      1.0  0.08012297168814138  0.8763281369964352  0.1129081775942486  1.0000
  C   C508      1.0  0.07489692539690311  0.9042329889846922  0.12498313587617613  1.0000
  C   C509      1.0  0.06923263099749341  0.8062030611902198  0.089216436878317  1.0000
  C   C510      1.0  0.08413478256722708  0.7808247551508606  0.08709287712735361  1.0000
  C   C511      1.0  0.07140689825296287  0.7501456872441207  0.10035942149739796  1.0000
  C   C512      1.0  0.04412299085689469  0.7442806901556298  0.11628848347989305  1.0000
  C   C513      1.0  0.02915723037899557  0.7686570364234507  0.11816126955007285  1.0000
  C   C514      1.0  0.04090619745229728  0.798869536794719  0.1047105504111907  1.0000
  C   C515      1.0  0.02589445676898785  0.8310313158607483  0.0465933387851975  1.0000
  C   C516      1.0  0.0073186076898396485  0.8251759052997487  0.023783551799032576  1.0000
  C   C517      1.0  0.016631663717903138  0.81133200707047  0.0009261474521999878  1.0000
  C   C518      1.0  0.04435573844787853  0.801795314366271  0.0011810321769307741  1.0000
  C   C519      1.0  0.0631291111970646  0.8077892132787222  0.02448037374809542  1.0000
  C   C520      1.0  0.05546980200376812  0.825544663585055  0.04647144633216089  1.0000
  H   H357      1.0  0.26293064884274525  0.9378138879444051  0.9961573364733644  1.0000
  H   H358      1.0  0.18114734023559376  0.9485105721209965  0.04112010042599683  1.0000
  H   H359      1.0  0.18290181766942123  0.9977616879734816  0.013627217727296912  1.0000
  H   H360      1.0  0.26373883757003913  0.9861693922377864  0.9696472695793804  1.0000
  H   H361      1.0  0.20616836438553288  0.9307109384449523  0.08582852556137008  1.0000
  H   H362      1.0  0.24595443459287208  0.969648267381056  0.11796969490212997  1.0000
  H   H363      1.0  0.32253297572187584  0.9515575342004957  0.07129886293852639  1.0000
  H   H364      1.0  0.28395071554308565  0.9172879115672523  0.039740845181687044  1.0000
  H   H365      1.0  0.1633487666199932  0.8925803806591831  0.00770114787730436  1.0000
  H   H366      1.0  0.10810400172556174  0.868742810920504  0.021111373233305697  1.0000
  H   H367      1.0  0.13721543840455225  0.838122112768646  0.09830533838914346  1.0000
  H   H368      1.0  0.1945183227873901  0.8666309116840948  0.08519912473304272  1.0000
  H   H369      1.0  0.06327123624468714  0.9449708255157624  0.06731197251846194  1.0000
  H   H370      1.0  0.07321517954349406  0.8969279933749217  0.04624081676671892  1.0000
  H   H371      1.0  0.08500406335543956  0.8571359356871918  0.12612374501934676  1.0000
  H   H372      1.0  0.07599110822115249  0.9067794741406909  0.14751679551216118  1.0000
  H   H373      1.0  0.10575670167897565  0.7835128801213366  0.07458708143975196  1.0000
  H   H374      1.0  0.08216634356229612  0.7300429397859445  0.09755260624239794  1.0000
  H   H375      1.0  0.007042677140601076  0.7652100908333326  0.12979881275601063  1.0000
  H   H376      1.0  0.029367586533057707  0.8177152106439467  0.1080663955853489  1.0000
  H   H377      1.0  0.018836116177396688  0.8430606810067095  0.06427617211559887  1.0000
  H   H378      1.0  0.484042440240236  0.8296513779938856  0.024675648335590772  1.0000
  H   H379      1.0  0.052746611526164715  0.789268624529969  0.9840318123508853  1.0000
  H   H380      1.0  0.08598412700782032  0.8020663895364505  0.024996309763477775  1.0000
  C   C521      1.0  0.38399483470192425  0.9927181149010135  0.31921434041778196  1.0000
  C   C522      1.0  0.3932284823373446  0.5198641867760165  0.3017752919934538  1.0000
  C   C523      1.0  0.42384976265292895  0.5317066751242331  0.29278649440274346  1.0000
  C   C524      1.0  0.4460254926746979  0.5146328748769026  0.2969962034047501  1.0000
  C   C525      1.0  0.43556293163895504  0.9851643088420893  0.31214745587242126  1.0000
  C   C526      1.0  0.40547453106932685  0.9752808346425713  0.3241702038962185  1.0000
  H   H381      1.0  0.3781472130433352  0.5355756024433483  0.29681120642712283  1.0000
  H   H382      1.0  0.42976990897423206  0.555450190464293  0.2824410523094333  1.0000
  H   H383      1.0  0.45064665750499844  0.9693548314917374  0.3168854340216523  1.0000
  H   H384      1.0  0.39980446670398406  0.9534451950639212  0.3375187635930109  1.0000
  C   C527      1.0  0.011232046619877716  0.9943867972537731  0.3090703394778881  1.0000
  C   C528      1.0  0.499859229511037  0.5009428455876651  0.28332287123612315  1.0000
  C   C529      1.0  0.0064838295629861065  0.983270146527518  0.2607861283171776  1.0000
  C   C530      1.0  0.023147754817317054  0.9604502244947152  0.26397629842026077  1.0000
  C   C531      1.0  0.03209116351102025  0.9531182128557352  0.28949560372295213  1.0000
  C   C532      1.0  0.026926039811318143  0.9703733615269344  0.31199123620242497  1.0000
  C   C533      1.0  0.4817985126851154  0.5292318957475107  0.28207928044207337  1.0000
  C   C534      1.0  0.0050302262115912285  0.562262038307804  0.29726958782724366  1.0000
  C   C535      1.0  0.03778679369922534  0.572835656587414  0.2914832934714582  1.0000
  C   C536      1.0  0.05764285084422675  0.6025978139289684  0.3014854633951711  1.0000
  C   C537      1.0  0.04514895650066266  0.622085111139709  0.31866346052884753  1.0000
  C   C538      1.0  0.012941355933289192  0.6108548894553382  0.3254281833440837  1.0000
  C   C539      1.0  0.4929644058623885  0.5817252295589144  0.3145770828452591  1.0000
  C   C540      1.0  0.452379872879947  0.514924638478628  0.23554842952487437  1.0000
  C   C541      1.0  0.44745095206929253  0.5199004296357088  0.20870331254918773  1.0000
  C   C542      1.0  0.4653357631712415  0.5473738994777759  0.19423901552510564  1.0000
  C   C543      1.0  0.4890332634207064  0.5705015648736755  0.20909797276812583  1.0000
  C   C544      1.0  0.4939145414136567  0.5668592677613282  0.23611164254565065  1.0000
  C   C545      1.0  0.47585034076949384  0.5381072228777964  0.2503522987790011  1.0000
  C   C546      1.0  0.46164153244589184  0.5512716064477055  0.16174820189663028  1.0000
  C   C547      1.0  0.025307750607963593  0.9975134604655186  0.1256665969324101  1.0000
  C   C548      1.0  0.4961194638906282  0.9803987491482289  0.13673969380438744  1.0000
  C   C549      1.0  0.4769717119678189  0.99708618862471  0.1479285165634805  1.0000
  C   C550      1.0  0.48637378153512734  0.5317483516553712  0.1503484825830422  1.0000
  C   C551      1.0  0.017920426021764187  0.5477048974328338  0.14395108154449476  1.0000
  C   C552      1.0  0.036770600273971596  0.5312987259076797  0.130294810208249  1.0000
  C   C553      1.0  0.46949161049089216  0.5884509664227544  0.15028537805845157  1.0000
  C   C554      1.0  0.46543667897839036  0.6140835531523965  0.16667035481469916  1.0000
  C   C555      1.0  0.47417893648013676  0.6461788117907417  0.15677157764626007  1.0000
  C   C556      1.0  0.48719492095835437  0.6537957049359742  0.13126193329684477  1.0000
  C   C557      1.0  0.490220233051901  0.6280700607088784  0.11460213325272205  1.0000
  C   C558      1.0  0.4801950780224118  0.5959792976753108  0.12388281496368876  1.0000
  C   C559      1.0  0.4184927953945453  0.5193607759101666  0.12537306839457488  1.0000
  C   C560      1.0  0.3882402013103329  0.5000308702779973  0.11920280253411424  1.0000
  C   C561      1.0  0.3640117553241976  0.9984742175093605  0.13746200422592314  1.0000
  C   C562      1.0  0.36907004125338483  0.5193287733742605  0.16037881315779395  1.0000
  C   C563      1.0  0.4001877442555975  0.5380808326025218  0.16665678836967315  1.0000
  C   C564      1.0  0.4256240581152922  0.5353950480254845  0.15066379965379798  1.0000
  H   H385      1.0  0.0070814327160780045  0.506593078005689  0.3272349871589098  1.0000
  H   H386      1.0  0.49884074600559836  0.9867965691747265  0.23967591764793553  1.0000
  H   H387      1.0  0.0278412420587992  0.9465899768350214  0.24634197540843722  1.0000
  H   H388      1.0  0.03385841077412906  0.9648281278787878  0.3322669049503708  1.0000
  H   H389      1.0  0.047778895040474736  0.5586131695514186  0.27792095948940765  1.0000
  H   H390      1.0  0.08222543091841542  0.6110735508486073  0.2946857967063831  1.0000
  H   H391      1.0  0.0027518816400880696  0.6268814875120742  0.3378599802406344  1.0000
  H   H392      1.0  0.46783050254884  0.5745172702167916  0.3206490947553799  1.0000
  H   H393      1.0  0.4391159421668571  0.992444703813932  0.2459144268379209  1.0000
  H   H394      1.0  0.4301094585465166  0.9998759412621601  0.19781521265483762  1.0000
  H   H395      1.0  0.004691598409176963  0.5920390393794146  0.19837328687067984  1.0000
  H   H396      1.0  0.012827806131499383  0.5858645546587169  0.24505727417491469  1.0000
  H   H397      1.0  0.4869463937721425  0.9531150733314236  0.13440050979838963  1.0000
  H   H398      1.0  0.45283871016026267  0.9829711035906352  0.1541995030006493  1.0000
  H   H399      1.0  0.0281822641787154  0.5736609320716639  0.14890160066579977  1.0000
  H   H400      1.0  0.06123453941878897  0.5436597914091579  0.12388384272467558  1.0000
  H   H401      1.0  0.4550713764286717  0.6085891224860401  0.18722290237249378  1.0000
  H   H402      1.0  0.4712781999366403  0.6661038868662034  0.1698506584123088  1.0000
  H   H403      1.0  0.4997564187485342  0.6333319350942623  0.09403458038451987  1.0000
  H   H404      1.0  0.48100391481642346  0.5759451219095761  0.11009704574310394  1.0000
  H   H405      1.0  0.4381332804125483  0.5202892309727669  0.11117619477926287  1.0000
  H   H406      1.0  0.3834423014379831  0.9858121547509541  0.10074421521086263  1.0000
  H   H407      1.0  0.35093274175393296  0.518492215408423  0.17539460672740256  1.0000
  H   H408      1.0  0.40464989726759315  0.5527054190779376  0.18544179258233814  1.0000
  C   C565      1.0  0.49829033414413504  0.6893402868056919  0.119511336382357  1.0000
  C   C566      1.0  0.03067814828664163  0.7105367061893672  0.13129297167864667  1.0000
  H   H409      1.0  0.0008732245340218693  0.6882238258831505  0.0965848664972101  1.0000
  H   H410      1.0  0.4803618266927836  0.7018651560077561  0.12379627748859867  1.0000
  H   H411      1.0  0.027110950099521025  0.7145881441892046  0.1526706057566588  1.0000
  H   H412      1.0  0.04775769182834635  0.6955407029609915  0.12998278197265106  1.0000
  C   C567      1.0  0.3113973441594966  0.9892150486123629  0.1131402460250721  1.0000
  C   C568      1.0  0.3320628462533065  0.9743214880621209  0.13234396006376678  1.0000
  H   H413      1.0  0.32706830939989046  0.5070804234156049  0.09805230363418888  1.0000
  H   H414      1.0  0.30012352880123716  0.5054435416798057  0.12510461722481803  1.0000
  H   H415      1.0  0.3359788842119221  0.9516401122969531  0.1236318357307078  1.0000
  H   H416      1.0  0.31933547588281613  0.9645722202040216  0.15176905381902203  1.0000
  C   C569      1.0  0.060975854564815135  0.9578152429255807  0.12390645346638558  1.0000
  C   C570      1.0  0.04364433422187106  0.9788000706826807  0.10800555213492928  1.0000
  H   H417      1.0  0.047990105924667875  0.9485546338825067  0.14310852308750135  1.0000
  H   H418      1.0  0.0838992642352202  0.9742500418609931  0.13193408898222375  1.0000
  H   H419      1.0  0.06188285984540674  0.9966430398741646  0.09491578265461764  1.0000
  H   H420      1.0  0.025919377120868677  0.963389461766333  0.09351658884716359  1.0000
  C   C571      1.0  0.35115283981292944  0.9821372608567186  0.3328527287128571  1.0000
  C   C572      1.0  0.3289195576454376  0.9478003671722222  0.3240982606271412  1.0000
  H   H421      1.0  0.3541029104529271  0.9808233836536239  0.3554655259448271  1.0000
  H   H422      1.0  0.3391596544948182  0.5017118340496024  0.32981672275779667  1.0000
  H   H423      1.0  0.32176048162991977  0.950451664066206  0.3029901054798727  1.0000
  H   H424      1.0  0.34269835395991577  0.9294261210736805  0.3225052310975733  1.0000
  C   C573      1.0  0.0651704712158945  0.6844022040465141  0.309370445686039  1.0000
  C   C574      1.0  0.06637546363038356  0.6554591590342052  0.3291486781163649  1.0000
  H   H425      1.0  0.0825025177478081  0.6865861060006543  0.29206706171197083  1.0000
  H   H426      1.0  0.04091806506266637  0.6784128540292627  0.2992243892241715  1.0000
  H   H427      1.0  0.05702445522545336  0.6592135923877069  0.34969567576483074  1.0000
  H   H428      1.0  0.0910760746727039  0.6555036976706415  0.33143852959499553  1.0000
  C   C575      1.0  0.04398176419824163  0.9220776380833199  0.2947947393709858  1.0000
  C   C576      1.0  0.07970398610103319  0.9312978545456279  0.30279071984843003  1.0000
  H   H429      1.0  0.030329922988757297  0.9060130871252438  0.3116705747745377  1.0000
  H   H430      1.0  0.039027291060836744  0.9048222472988856  0.27654375976707146  1.0000
  H   H431      1.0  0.09370976553100606  0.9357125347158086  0.2836126998344058  1.0000
  H   H432      1.0  0.08762876692683734  0.9561226269730566  0.313351991748972  1.0000
  C   C577      1.0  0.2387931451757894  0.5418486126405809  0.45888294748240344  1.0000
  C   C578      1.0  0.21347976872667992  0.5079514440670563  0.4665664886198549  1.0000
  H   H433      1.0  0.23253401569924192  0.5516046985322053  0.43889299628879297  1.0000
  H   H434      1.0  0.26230121168821086  0.5387576134894062  0.4546136283431614  1.0000
  H   H435      1.0  0.1888033163465911  0.5102697090185364  0.4649076823871306  1.0000
  H   H436      1.0  0.21629358047288044  0.5020772330174678  0.4890641766213013  1.0000
  C   C579      1.0  0.47949114690070155  0.7445078289870348  0.46008953888092774  1.0000
  C   C580      1.0  0.006512278900083377  0.7773007467495285  0.45984698728803874  1.0000
  H   H437      1.0  0.48854917008292736  0.7235363579502935  0.4555817791927439  1.0000
  H   H438      1.0  0.4628187074280254  0.7445911499946721  0.44286837578580507  1.0000
  H   H439      1.0  0.497976941278157  0.7991185870062804  0.46326326480822183  1.0000
  H   H440      1.0  0.02303142714745117  0.7785962465341164  0.4771359826082914  1.0000
  C   C581      1.0  0.2410120348215769  0.7788657154129348  0.4686713431208582  1.0000
  C   C582      1.0  0.27041777252243837  0.7850259256623657  0.48700248808174434  1.0000
  H   H441      1.0  0.23822724825662425  0.7576552360075403  0.4537503091142342  1.0000
  H   H442      1.0  0.2188003470213764  0.7711330865096471  0.48117713880845986  1.0000
  H   H443      1.0  0.2729796448742382  0.804833233215579  0.5026100664275628  1.0000
  H   H444      1.0  0.2920555746752069  0.7938428761996477  0.4743630834658564  1.0000
  C   C583      1.0  0.4149531843120268  0.5540175481858262  0.6126853236377462  1.0000
  C   C584      1.0  0.4373209818798415  0.5899528124091098  0.6077171270274679  1.0000
  H   H445      1.0  0.4054565800268382  0.5438332934730157  0.5928248703284748  1.0000
  H   H446      1.0  0.3959579120547073  0.5537882687508691  0.6278468537152856  1.0000
  H   H447      1.0  0.45658239529443717  0.589826692101101  0.5929235353832094  1.0000
  H   H448      1.0  0.4502110835485016  0.5996112642067186  0.6264573208611077  1.0000
  C   C585      1.0  0.13803346424528867  0.5606943231132732  0.6074704643906316  1.0000
  C   C586      1.0  0.16034997544435506  0.5950032235385985  0.617221860633561  1.0000
  H   H449      1.0  0.15138650860580125  0.54172730641347  0.6065886454639418  1.0000
  H   H450      1.0  0.1321536616997661  0.5644687025472821  0.5858710394916642  1.0000
  H   H451      1.0  0.16878301364604764  0.5914533455209836  0.6379333000399177  1.0000
  H   H452      1.0  0.1460053049801554  0.6122632896834282  0.6194870458485079  1.0000
  C   C587      1.0  0.4535965223763035  0.8301422968970271  0.6276495236058166  1.0000
  C   C588      1.0  0.4585487171633652  0.8626473301612646  0.6116575626509282  1.0000
  H   H453      1.0  0.4762447405760626  0.8299940254100708  0.638066908968204  1.0000
  H   H454      1.0  0.4359245935818997  0.8292300316736346  0.6448974084865965  1.0000
  H   H455      1.0  0.43565539972309025  0.8643272397737856  0.6053676654116019  1.0000
  H   H456      1.0  0.472003668598102  0.8612705268107494  0.5925103754665085  1.0000
  C   C589      1.0  0.4699817998855418  0.7737204563085195  0.9776905270622183  1.0000
  C   C590      1.0  0.49725550114594835  0.8071457233726291  0.9749690159691241  1.0000
  H   H457      1.0  0.45318609565989615  0.7731169136614411  0.9951007981789154  1.0000
  H   H458      1.0  0.4797832812349389  0.7524006621575323  0.9818961250202776  1.0000
  H   H459      1.0  0.011986705123328042  0.8086133421292645  0.9564384853767952  1.0000
  H   H460      1.0  0.4866528844811162  0.8282024620170384  0.9725784439137853  1.0000
  C   C591      1.0  0.24131238923415047  0.5548612957449128  0.9789752282957408  1.0000
  C   C592      1.0  0.21974973295427386  0.5210290352501877  0.968401623263357  1.0000
  H   H461      1.0  0.26596889412345004  0.553178908159723  0.9825395033980255  1.0000
  H   H462      1.0  0.2323813990840034  0.5599176007725754  0.999520170422233  1.0000
  H   H463      1.0  0.19471090634758217  0.5227728112661493  0.9673635846666708  1.0000
  H   H464      1.0  0.2262811767995696  0.5154219903414887  0.9470611941330676  1.0000
  C   C593      1.0  0.2296067580984647  0.7729641496575003  0.9656821676922365  1.0000
  C   C594      1.0  0.25734098974401204  0.8030424996828986  0.9747531861618922  1.0000
  H   H465      1.0  0.21111802070699764  0.7824718964751279  0.9553387811209  1.0000
  H   H466      1.0  0.21634275392392988  0.7598708677888394  0.9835631533408964  1.0000
  H   H467      1.0  0.2754928207012511  0.7941266406294172  0.9862312208626759  1.0000
  H   H468      1.0  0.2704374782074145  0.8167755641140142  0.9565823719149497  1.0000
  C   C595      1.0  0.4580382095342107  0.6261650604452345  0.8049835153153447  1.0000
  C   C596      1.0  0.42691323770598755  0.6173207689486173  0.8234523802484645  1.0000
  H   H469      1.0  0.47768848725353236  0.6457116171239499  0.8149445747995849  1.0000
  H   H470      1.0  0.45331185342375846  0.6371775649580004  0.784695513435557  1.0000
  H   H471      1.0  0.42910269328335043  0.6000720709325326  0.8398328348563701  1.0000
  H   H472      1.0  0.4061481316868738  0.6032590364520221  0.8111254149725692  1.0000
  C   C597      1.0  0.15276538341804702  0.5720803818358059  0.8169877636413793  1.0000
  C   C598      1.0  0.178697013272654  0.6043753455166739  0.8083319606103978  1.0000
  H   H473      1.0  0.146493171493959  0.5737746168813949  0.838759852386132  1.0000
  H   H474      1.0  0.16489467219096932  0.5517228401201414  0.8168418215812511  1.0000
  H   H475      1.0  0.16709971383117375  0.6231588959236872  0.8012465763672745  1.0000
  H   H476      1.0  0.1926919831676173  0.5997414589932234  0.7900295929571426  1.0000
  C   C599      1.0  0.4386138795420145  0.89692633576498  0.8320917391036569  1.0000
  C   C600      1.0  0.4393402366161875  0.865299210927237  0.8166753243013866  1.0000
  H   H477      1.0  0.4487114071986544  0.8949840993912204  0.8525277385655463  1.0000
  H   H478      1.0  0.4138271962107797  0.8978829966629205  0.8359725645898817  1.0000
  H   H479      1.0  0.46376036172590085  0.8691106687933516  0.8092487234106396  1.0000
  H   H480      1.0  0.4256131651352997  0.8639197815103297  0.7975589699465714  1.0000
  C   C601      1.0  0.9203737219423194  0.14825513216701489  0.8364206683801343  1.0000
  C   C602      1.0  0.9213748057858185  0.15207628914775995  0.8644641546664508  1.0000
  C   C603      1.0  0.9135591865442179  0.17815513130559077  0.8761436305206507  1.0000
  C   C604      1.0  0.9062469841556903  0.20279512803133878  0.8606491058833823  1.0000
  C   C605      1.0  0.9038319848721215  0.19845322242553617  0.832383623223913  1.0000
  C   C606      1.0  0.911075369364322  0.1713709302869782  0.8201697116565677  1.0000
  H   H481      1.0  0.9267172955204228  0.13393119851021076  0.8783101506808632  1.0000
  H   H482      1.0  0.9141886772569403  0.17881599206601564  0.8984254887148654  1.0000
  H   H483      1.0  0.8965253574381198  0.21544478122837912  0.818965175780017  1.0000
  H   H484      1.0  0.9085476464055093  0.16786409288631574  0.7984675106589185  1.0000
  C   C607      1.0  0.9363991325887248  0.27986490714043744  0.8444207599015257  1.0000
  C   C608      1.0  0.9077850164982054  0.26938458744716265  0.8587703587994789  1.0000
  C   C609      1.0  0.8890082657450893  0.29054522091782425  0.8596419001163006  1.0000
  C   C610      1.0  0.8993981504072117  0.32175542407420277  0.8463673392105591  1.0000
  C   C611      1.0  0.9282408903362984  0.3321545529978864  0.8322171259440485  1.0000
  C   C612      1.0  0.9462260194004539  0.31084305190445877  0.8313414735832796  1.0000
  C   C613      1.0  0.8993526804718819  0.2345384706559008  0.87487126241897  1.0000
  C   C614      1.0  0.9210882091777395  0.24833187161845835  0.9018232665372856  1.0000
  C   C615      1.0  0.9095033655659944  0.2651302031972488  0.9219920481426025  1.0000
  C   C616      1.0  0.9248862541172922  0.2738366012801075  0.9462287077337449  1.0000
  C   C617      1.0  0.9521816363966524  0.26525966867467976  0.9508988536578461  1.0000
  C   C618      1.0  0.9658721178279555  0.2519098998407722  0.9304813538937193  1.0000
  C   C619      1.0  0.9511021031850522  0.2443723538645341  0.9056136490566705  1.0000
  C   C620      1.0  0.8389624259888391  0.21600794559013298  0.8621003043967693  1.0000
  C   C621      1.0  0.8072695687887447  0.20084522117832201  0.8679605975436057  1.0000
  C   C622      1.0  0.7976834080877788  0.18461828346363107  0.8927563591115771  1.0000
  C   C623      1.0  0.8219697348049438  0.18455845566480983  0.9114102210223242  1.0000
  C   C624      1.0  0.8532989681216462  0.19980358083093103  0.9055725386171978  1.0000
  C   C625      1.0  0.8626080893499355  0.21762946702175956  0.8817942604261761  1.0000
  C   C626      1.0  0.7611940677742403  0.168269257562345  0.9015724928565021  1.0000
  C   C627      1.0  0.7415853368606471  0.24986468920476823  0.9474003552587175  1.0000
  C   C628      1.0  0.7365408492490857  0.24876590108354413  0.9195110331204238  1.0000
  C   C629      1.0  0.7444328535792074  0.22422171155229095  0.904509833756828  1.0000
  C   C630      1.0  0.7555276089449936  0.19981711430993163  0.9172129595538986  1.0000
  C   C631      1.0  0.7645987893443354  0.20562566822405715  0.9446233450723353  1.0000
  C   C632      1.0  0.7566958204748927  0.22927985339665852  0.9599863163032911  1.0000
  C   C633      1.0  0.7537839794275978  0.135823156879368  0.9208820662768391  1.0000
  C   C634      1.0  0.7705452463582613  0.11206033753077156  0.9180516125191422  1.0000
  C   C635      1.0  0.7644240922158377  0.08509829814021382  0.9356242698717567  1.0000
  C   C636      1.0  0.7432683085021394  0.0819659737019595  0.957349081611116  1.0000
  C   C637      1.0  0.724989175744274  0.10353127457841836  0.9588331684760812  1.0000
  C   C638      1.0  0.7296799822521463  0.1296942550542863  0.9403930808505924  1.0000
  C   C639      1.0  0.7083419585647575  0.15270513778824718  0.8736770041522874  1.0000
  C   C640      1.0  0.6895201312541842  0.13752240804997595  0.8514465340074138  1.0000
  C   C641      1.0  0.7018157716265124  0.12153594011953642  0.8314545272918297  1.0000
  C   C642      1.0  0.7328783748099138  0.11982782378871276  0.8342747034396584  1.0000
  C   C643      1.0  0.7510451010268362  0.13429427470456545  0.8565997275953192  1.0000
  C   C644      1.0  0.740295729309005  0.15296933014374672  0.8758640795322362  1.0000
  H   H485      1.0  0.9528969230177375  0.26550538540803953  0.8438739910565386  1.0000
  H   H486      1.0  0.8660486233065229  0.28315104421298076  0.8703450030330234  1.0000
  H   H487      1.0  0.884182961132414  0.3382366688029832  0.8471052715990943  1.0000
  H   H488      1.0  0.9684890550863339  0.3166026610875287  0.8206404261885304  1.0000
  H   H489      1.0  0.8873084599540044  0.2706443141700503  0.9186888243309694  1.0000
  H   H490      1.0  0.9146628964186363  0.2855654719935691  0.9621672251173189  1.0000
  H   H491      1.0  0.9890082727141914  0.24780743565737443  0.9326314298781426  1.0000
  H   H492      1.0  0.9627916040102957  0.23471247634294243  0.888939254806535  1.0000
  H   H493      1.0  0.8467749683286009  0.22783511045590038  0.8424680140265715  1.0000
  H   H494      1.0  0.7886234758013717  0.20145437822993312  0.8532430602123716  1.0000
  H   H495      1.0  0.8164340145494366  0.17209823584227174  0.9310014009530493  1.0000
  H   H496      1.0  0.8706449833789216  0.19952311542879403  0.9210506190786771  1.0000
  H   H497      1.0  0.7245576198838454  0.2651751306645831  0.9102488511072198  1.0000
  H   H498      1.0  0.739177424783712  0.22278472086934248  0.8829494637753595  1.0000
  H   H499      1.0  0.7776827017760689  0.1909017158371994  0.9548824552427528  1.0000
  H   H500      1.0  0.76194956468503  0.23220661816929186  0.9819475130696185  1.0000
  H   H501      1.0  0.7871430604940406  0.11295012240632005  0.9015971591201858  1.0000
  H   H502      1.0  0.7785888543839667  0.06839898569340833  0.9342018486660005  1.0000
  H   H503      1.0  0.7056799021347998  0.09966869976672467  0.974076919432566  1.0000
  H   H504      1.0  0.7136845014069693  0.14540491435133848  0.9415010071943821  1.0000
  H   H505      1.0  0.6975618142091349  0.164315174290807  0.8890276422514014  1.0000
  H   H506      1.0  0.6643814505024329  0.13653283821544207  0.8505503264269083  1.0000
  H   H507      1.0  0.7437500790461631  0.10543793344478686  0.8199949922888087  1.0000
  H   H508      1.0  0.7752570950202605  0.1328763614218922  0.8584435308056707  1.0000
  C   C645      1.0  0.9211348521515166  0.11499279809358706  0.5964282003482587  1.0000
  C   C646      1.0  0.9180727048208009  0.14042988298047923  0.6133307575374679  1.0000
  C   C647      1.0  0.9108030974237494  0.16744868932921697  0.602808540554425  1.0000
  C   C648      1.0  0.9095629911222903  0.171965612302037  0.574469059103905  1.0000
  C   C649      1.0  0.9114727288277704  0.14500020771262415  0.5574637258160141  1.0000
  C   C650      1.0  0.9145802671686007  0.11594948019580796  0.5685532668637805  1.0000
  H   H509      1.0  0.9235321242052359  0.139572008793389  0.6350144588373545  1.0000
  H   H510      1.0  0.9080592480783827  0.1852842377879846  0.6177830181323636  1.0000
  H   H511      1.0  0.9080951848414708  0.1462800295994115  0.5350893691329859  1.0000
  H   H512      1.0  0.9169358573164439  0.09685334642229862  0.5551697632934363  1.0000
  C   C651      1.0  0.9563131655095243  0.21490157528152426  0.5330153474615871  1.0000
  C   C652      1.0  0.9263271603515846  0.21915483372885658  0.5357635803403384  1.0000
  C   C653      1.0  0.9161854072694783  0.2361133130803  0.5149329206595109  1.0000
  C   C654      1.0  0.9336271280297241  0.24533480998466473  0.49103336667204467  1.0000
  C   C655      1.0  0.9621429194348294  0.2389189743172252  0.4879171953600124  1.0000
  C   C656      1.0  0.9741930118848435  0.22474510497619862  0.5098413927308144  1.0000
  C   C657      1.0  0.9052214044042516  0.20617446422577776  0.5622777582782698  1.0000
  C   C658      1.0  0.9168774504890679  0.2391683488386837  0.5808925652715177  1.0000
  C   C659      1.0  0.9021061516156839  0.26454944451683854  0.5807815670849413  1.0000
  C   C660      1.0  0.9131607491113749  0.2934775029007976  0.5957190452673544  1.0000
  C   C661      1.0  0.9408218557002154  0.29885473584785  0.6108189096856848  1.0000
  C   C662      1.0  0.9566998335028671  0.2747612531901121  0.6108374093834474  1.0000
  C   C663      1.0  0.9453816333337941  0.24597747504698728  0.5957087676574861  1.0000
  C   C664      1.0  0.8569341839479806  0.1767767887990481  0.5310811012843956  1.0000
  C   C665      1.0  0.8249112426855582  0.1634140915542107  0.5265671750302908  1.0000
  C   C666      1.0  0.8019532085505776  0.16641138759799978  0.5451532047159079  1.0000
  C   C667      1.0  0.8121947271290224  0.1823623731001531  0.569747525130463  1.0000
  C   C668      1.0  0.8444946115322107  0.19347246907533971  0.5753549890745422  1.0000
  C   C669      1.0  0.8676252133051069  0.19207486517449587  0.5558398634568417  1.0000
  C   C670      1.0  0.7650306417202714  0.15455698874237483  0.5368858953379437  1.0000
  C   C671      1.0  0.7684349345001112  0.25174230406038073  0.5006367653328722  1.0000
  C   C672      1.0  0.7781574964476264  0.22896914902383317  0.48565612118901275  1.0000
  C   C673      1.0  0.7757289147535472  0.1976046036966412  0.4960591178975847  1.0000
  C   C674      1.0  0.7644434261290542  0.18904646943198047  0.5228877906974823  1.0000
  C   C675      1.0  0.7577214366840718  0.21384431957595754  0.5383967039885662  1.0000
  C   C676      1.0  0.7596953687282806  0.24540323614118678  0.5275106596161898  1.0000
  C   C677      1.0  0.7380276502387277  0.141051070013285  0.56046889894147  1.0000
  C   C678      1.0  0.7433350538643971  0.12362262289940769  0.5833797468596172  1.0000
  C   C679      1.0  0.7193103107890706  0.10891497826318355  0.6019349437156297  1.0000
  C   C680      1.0  0.6885149248423061  0.11018383391770653  0.5974970717745496  1.0000
  C   C681      1.0  0.6825869720992546  0.12739612563179062  0.574695166521005  1.0000
  C   C682      1.0  0.7071764011473456  0.14322262755362372  0.5574452261182513  1.0000
  C   C683      1.0  0.7331772523848252  0.11902064882071904  0.4966408306161238  1.0000
  C   C684      1.0  0.7273395780450057  0.0932863600950838  0.4782665196937912  1.0000
  C   C685      1.0  0.741760162060087  0.06827624359932183  0.4810764182317517  1.0000
  C   C686      1.0  0.762767110829361  0.07011938187060487  0.5026306216472992  1.0000
  C   C687      1.0  0.7679373422513922  0.09543939322642749  0.5216606440792215  1.0000
  C   C688      1.0  0.7551945330329215  0.12200900648494784  0.5177017087579986  1.0000
  H   H513      1.0  0.9649581853081874  0.2031709433446301  0.5495232444318581  1.0000
  H   H514      1.0  0.8931201326811438  0.2397110273613274  0.5163471197773725  1.0000
  H   H515      1.0  0.9239667718328499  0.255353054912698  0.47428086258691093  1.0000
  H   H516      1.0  0.9956052264797719  0.2176775841841687  0.5066203897981267  1.0000
  H   H517      1.0  0.8809370618036502  0.26241515220695544  0.5687526524952232  1.0000
  H   H518      1.0  0.9006986376136267  0.3130133198678632  0.5952853301309172  1.0000
  H   H519      1.0  0.9776585490736213  0.27814372746771276  0.6240133052344544  1.0000
  H   H520      1.0  0.9585257797440062  0.22803738491658299  0.5963809233428652  1.0000
  H   H521      1.0  0.8727567945039434  0.17264551286713284  0.5159339598606716  1.0000
  H   H522      1.0  0.8168274922420845  0.15205768215126053  0.5076255400432347  1.0000
  H   H523      1.0  0.7948589348006243  0.18499934824523215  0.5856079326790387  1.0000
  H   H524      1.0  0.8521830882167667  0.2019808378814208  0.5960047628216898  1.0000
  H   H525      1.0  0.7867682534132691  0.2329535129331809  0.46468157497003065  1.0000
  H   H526      1.0  0.7835463992683749  0.18077609134823158  0.4833416034466986  1.0000
  H   H527      1.0  0.7509829881763698  0.2087014835030572  0.559774132514381  1.0000
  H   H528      1.0  0.7528877494553492  0.2637938155837139  0.5393422440964388  1.0000
  H   H529      1.0  0.766852656296616  0.12064013629212215  0.5854804903166733  1.0000
  H   H530      1.0  0.7239105154535976  0.09670633255220293  0.6198960947212614  1.0000
  H   H531      1.0  0.6589776753985911  0.1293596252554525  0.5702346838382147  1.0000
  H   H532      1.0  0.7013886916373939  0.15633616991152813  0.5399424565127405  1.0000
  H   H533      1.0  0.7220947382138084  0.13842211269364404  0.49135197257795826  1.0000
  H   H534      1.0  0.7110325647045372  0.09276024473071218  0.4619148423935166  1.0000
  H   H535      1.0  0.7748300938351973  0.05101230081489919  0.5052288014219751  1.0000
  H   H536      1.0  0.7843721580676691  0.0968698493869038  0.5385549791805362  1.0000
  C   C689      1.0  0.6073759380925801  0.04821869742686642  0.6237378652899872  1.0000
  C   C690      1.0  0.5832114723435046  0.06345893533469986  0.621620677657142  1.0000
  C   C691      1.0  0.5535694507452024  0.04822200553849839  0.6329178264242458  1.0000
  C   C692      1.0  0.5477012296399073  0.016954036047878842  0.6455736752159228  1.0000
  C   C693      1.0  0.5736630287538861  0.0051220602193401115  0.6507535905894856  1.0000
  C   C694      1.0  0.6027067859365287  0.019955801367044848  0.6393187218501484  1.0000
  H   H537      1.0  0.5860408047331228  0.08603738863804397  0.610021367159914  1.0000
  H   H538      1.0  0.5344228670307043  0.059542749442617504  0.6299845965678671  1.0000
  H   H539      1.0  0.5703964587854989  0.48237098466125017  0.6629243361953846  1.0000
  H   H540      1.0  0.6209842049572742  0.008235335653402771  0.6427000554967797  1.0000
  C   C695      1.0  0.51491107026651  0.4492815906502771  0.624173635948398  1.0000
  C   C696      1.0  0.5024963648817926  0.4587339289745594  0.6486672357862451  1.0000
  C   C697      1.0  0.9772806373335556  0.43602698495750647  0.6616560791376511  1.0000
  C   C698      1.0  0.9633405486616096  0.4051579704566661  0.6500896569920012  1.0000
  C   C699      1.0  0.9749670674115214  0.3955893448161697  0.626461431905055  1.0000
  C   C700      1.0  0.5021354363556892  0.4171560402951467  0.6144695167108623  1.0000
  C   C701      1.0  0.5135144983876017  0.496866694310387  0.6579766948048426  1.0000
  C   C702      1.0  0.984300548490716  0.009582457171547942  0.646656935296029  1.0000
  C   C703      1.0  0.9626495248633641  0.018482284585898748  0.6632491086672191  1.0000
  C   C704      1.0  0.9390231899011747  0.03027530938677483  0.652338398031159  1.0000
  C   C705      1.0  0.936547949815783  0.033832406325895494  0.6244757976785226  1.0000
  C   C706      1.0  0.9566563700386965  0.022511628635222224  0.6075259634839199  1.0000
  C   C707      1.0  0.9801387067565221  0.010852422940139888  0.6184613403836635  1.0000
  C   C708      1.0  0.5217986838382223  0.4795478754055958  0.7086268117572082  1.0000
  C   C709      1.0  0.5224659362479126  0.48573835499175566  0.7359837537043302  1.0000
  C   C710      1.0  0.5226228567311537  0.016090341388091615  0.7464751378577686  1.0000
  C   C711      1.0  0.5273033304578426  0.04239301164132961  0.7276527231451835  1.0000
  C   C712      1.0  0.5238147023499896  0.03570719117556661  0.7004890002635832  1.0000
  C   C713      1.0  0.5199528397407509  0.0039395470169311915  0.6899318394069884  1.0000
  C   C714      1.0  0.5187816879595385  0.020797243303405683  0.7783788944105735  1.0000
  C   C715      1.0  0.9578880844531507  0.4296842572214478  0.8184924057260808  1.0000
  C   C716      1.0  0.9872423731171932  0.4471495616872824  0.8294503933675345  1.0000
  C   C717      1.0  0.5051438966607815  0.4767398658396162  0.8176866411124155  1.0000
  C   C718      1.0  0.9964339511158999  0.4877985017565925  0.7929114347641802  1.0000
  C   C719      1.0  0.9661144374074869  0.47022480302152686  0.7827222123408665  1.0000
  C   C720      1.0  0.9471628130520761  0.4411427128468909  0.7951149543199181  1.0000
  C   C721      1.0  0.999097927133665  0.04652254273498736  0.7861035459874977  1.0000
  C   C722      1.0  0.9767579631026202  0.05332755254220771  0.7688474390188232  1.0000
  C   C723      1.0  0.9628002303384002  0.07847642798971063  0.7754518311201157  1.0000
  C   C724      1.0  0.9698917113818739  0.09618277242074208  0.7997419342825728  1.0000
  C   C725      1.0  0.9899357785860466  0.08743813205368733  0.8180525240237227  1.0000
  C   C726      1.0  0.503630574858616  0.06260686880486047  0.8116557396417674  1.0000
  C   C727      1.0  0.5716827698242015  0.0690209267620609  0.7858815496143451  1.0000
  C   C728      1.0  0.604004724889883  0.08155451956387849  0.7935301468782446  1.0000
  C   C729      1.0  0.62037793110289  0.05969413009159327  0.8021037290302807  1.0000
  C   C730      1.0  0.6050700964856184  0.025460358255270436  0.8012815202408263  1.0000
  C   C731      1.0  0.5737938707264194  0.01310619331589157  0.7930470992144403  1.0000
  C   C732      1.0  0.5558345293473429  0.034870433249940234  0.7863707638440705  1.0000
  H   H541      1.0  0.5326197233057957  0.46653816597340175  0.6121570544905217  1.0000
  H   H542      1.0  0.9653943386430622  0.44258428347657885  0.6793561788526311  1.0000
  H   H543      1.0  0.9433251181735657  0.3886317577078759  0.6597136108725652  1.0000
  H   H544      1.0  0.5121305020617825  0.41059950100958187  0.5958629318055089  1.0000
  H   H545      1.0  0.9610408752692249  0.013938498546790315  0.6853377477959118  1.0000
  H   H546      1.0  0.9238554241789083  0.04072419813350739  0.6652121321520416  1.0000
  H   H547      1.0  0.9563706449680729  0.02527564096876981  0.5854064915256224  1.0000
  H   H548      1.0  0.9953234103909794  0.003303415672180697  0.6041405187933413  1.0000
  H   H549      1.0  0.5216073638490994  0.45453630677402407  0.7017428686675012  1.0000
  H   H550      1.0  0.5201988712805513  0.4645336546689559  0.7494022011482263  1.0000
  H   H551      1.0  0.5304565412697766  0.06740642400366545  0.7349313264538285  1.0000
  H   H552      1.0  0.5239008865276975  0.05618452580124633  0.6866142269415398  1.0000
  H   H553      1.0  0.9942321237695603  0.4371845669558856  0.8480302564872306  1.0000
  H   H554      1.0  0.5270815797535464  0.4895901563120093  0.8280937488649346  1.0000
  H   H555      1.0  0.9580542488532291  0.47772824027429817  0.764047795210383  1.0000
  H   H556      1.0  0.923660646440598  0.4290595953019442  0.7867448688432722  1.0000
  H   H557      1.0  0.9689685121113963  0.04045165283746202  0.7493775348845427  1.0000
  H   H558      1.0  0.9470558987616045  0.08475137405710052  0.7604136323609945  1.0000
  H   H559      1.0  0.9967276644996947  0.10154879796422264  0.836953048571306  1.0000
  H   H560      1.0  0.5196681964545835  0.05679837323056625  0.8265623849945758  1.0000
  H   H561      1.0  0.5600643890998895  0.08668659762029314  0.7790304948762161  1.0000
  H   H562      1.0  0.6152488078002036  0.10901900249024439  0.7931539863570694  1.0000
  H   H563      1.0  0.6174220872942204  0.007585467732495836  0.8079434669573806  1.0000
  H   H564      1.0  0.5635680184527413  0.4855570898585024  0.7924386647102439  1.0000
  C   C733      1.0  0.7408469227904166  0.3098582808303029  0.4529918215059625  1.0000
  C   C734      1.0  0.7305390265526465  0.33393889419551215  0.46558806016040416  1.0000
  C   C735      1.0  0.7243622487946882  0.35893856732837987  0.45069991450535835  1.0000
  C   C736      1.0  0.7323297440536505  0.3626586275854049  0.4226255953894374  1.0000
  C   C737      1.0  0.7436243597421884  0.338310052071129  0.41041785038801293  1.0000
  C   C738      1.0  0.7470556089925933  0.3116295147527587  0.42559376911936775  1.0000
  H   H565      1.0  0.7233434839423227  0.33030085187188635  0.48696754420819255  1.0000
  H   H566      1.0  0.7137049321629472  0.3759739107157775  0.46094669154393403  1.0000
  H   H567      1.0  0.7476008809712777  0.3391316310300076  0.38833948886918823  1.0000
  H   H568      1.0  0.754338458436978  0.2928774648097474  0.4151147180977713  1.0000
  C   C739      1.0  0.7845614717942447  0.4114431369464551  0.3887362046101  1.0000
  C   C740      1.0  0.7525839679267304  0.4071014922566324  0.38281835684800186  1.0000
  C   C741      1.0  0.7464661772278471  0.4182019764814809  0.35690028028242504  1.0000
  C   C742      1.0  0.770402329200773  0.4319569254643222  0.3382402518057572  1.0000
  C   C743      1.0  0.8016383741036461  0.434290712286132  0.34446848338587427  1.0000
  C   C744      1.0  0.8086852495447392  0.423640214282465  0.3697308484418612  1.0000
  C   C745      1.0  0.724510073249024  0.3908692882304531  0.40433761638999755  1.0000
  C   C746      1.0  0.7239708235213052  0.4245498029378991  0.41936964858319786  1.0000
  C   C747      1.0  0.7031444279481224  0.44194865443231196  0.4104322390418284  1.0000
  C   C748      1.0  0.698558932938593  0.4677828926316372  0.4262679803267204  1.0000
  C   C749      1.0  0.7179891408001317  0.47977133193511873  0.44831962005988785  1.0000
  C   C750      1.0  0.7405225057407802  0.46446948351189155  0.455937384494183  1.0000
  C   C751      1.0  0.7438794925365056  0.4377787430221514  0.44121368059702804  1.0000
  C   C752      1.0  0.6863695229344153  0.35041948485995494  0.3683330934997887  1.0000
  C   C753      1.0  0.6566439107707585  0.3332275203247419  0.35967523494683373  1.0000
  C   C754      1.0  0.62995923920798  0.33035635907834643  0.376209853702762  1.0000
  C   C755      1.0  0.6348104597626267  0.34604283432342847  0.4013509429623044  1.0000
  C   C756      1.0  0.6643424126665858  0.3648537530315964  0.40945586610435125  1.0000
  C   C757      1.0  0.6905467308233044  0.3680465741647816  0.3929829130076321  1.0000
  C   C758      1.0  0.5944405867754763  0.3153939461543104  0.36504220281999744  1.0000
  C   C759      1.0  0.5866316380129062  0.40266637508025094  0.31922872907159744  1.0000
  C   C760      1.0  0.5967767532890285  0.3787600857616587  0.3064084385220294  1.0000
  C   C761      1.0  0.5984606185036652  0.35124851644988814  0.3212143632981298  1.0000
  C   C762      1.0  0.5912680140359738  0.34725103854396355  0.3488138568381409  1.0000
  C   C763      1.0  0.5841194381654251  0.37411615903838824  0.36190547628822883  1.0000
  C   C764      1.0  0.5814292369566065  0.40121024230482155  0.3471118846439703  1.0000
  C   C765      1.0  0.5686876746960077  0.3015125276931008  0.3887793705715464  1.0000
  C   C766      1.0  0.5746856352365318  0.28201072091746693  0.4104322390418284  1.0000
  C   C767      1.0  0.5543879536812677  0.27358793539233334  0.43299775926840484  1.0000
  C   C768      1.0  0.5267132292001704  0.28314210085433206  0.434171462315351  1.0000
  C   C769      1.0  0.5190208259343966  0.29946836071691757  0.41167582983587814  1.0000
  C   C770      1.0  0.5386448663903135  0.30667812164996977  0.38936930537797987  1.0000
  C   C771      1.0  0.5627683242439905  0.2718113439087205  0.3288917378696604  1.0000
  C   C772      1.0  0.5559762832138798  0.2413909535100837  0.3162112228142997  1.0000
  C   C773      1.0  0.5736346276177458  0.21941221471053401  0.32169535543996064  1.0000
  C   C774      1.0  0.5989759012790553  0.2294318549003022  0.33916112564994605  1.0000
  C   C775      1.0  0.6055968677471539  0.2599413893371502  0.3520163600730658  1.0000
  C   C776      1.0  0.5881833404549821  0.28188023419924807  0.346994719891473  1.0000
  H   H569      1.0  0.7917115042615465  0.40433824448615674  0.40846510451305873  1.0000
  H   H570      1.0  0.7220091721210746  0.41600516228843737  0.35104204265756234  1.0000
  H   H571      1.0  0.7639241168467407  0.44056280897459005  0.31859151725977025  1.0000
  H   H572      1.0  0.8333221625182838  0.42727673112543463  0.37592824719237383  1.0000
  H   H573      1.0  0.6890446506243577  0.4360655837141999  0.39126038559372506  1.0000
  H   H574      1.0  0.6806405535247614  0.4798731710450685  0.4208187915746113  1.0000
  H   H575      1.0  0.7541522541200839  0.4714494068551644  0.47429114019677915  1.0000
  H   H576      1.0  0.7613144532698228  0.425747583233631  0.44770090794582335  1.0000
  H   H577      1.0  0.7064701867407992  0.35140278838639794  0.3550893654236517  1.0000
  H   H578      1.0  0.6539359996461147  0.32184297611259893  0.33961128496217236  1.0000
  H   H579      1.0  0.6148805572906567  0.34759044789631677  0.41428428722042226  1.0000
  H   H580      1.0  0.666742960974202  0.37595676132388656  0.4294889832594081  1.0000
  H   H581      1.0  0.6038413856452791  0.38047106751998855  0.2852488953254201  1.0000
  H   H582      1.0  0.6055749528490528  0.3317161943808691  0.3109326423860024  1.0000
  H   H583      1.0  0.5783583672217031  0.3731197828984542  0.38364262115942993  1.0000
  H   H584      1.0  0.5743229750535231  0.420689270960054  0.35822403643344664  1.0000
  H   H585      1.0  0.5978175961860956  0.2778273957765566  0.41081045508497743  1.0000
  H   H586      1.0  0.5606375737948622  0.25923780642302957  0.45004214747379484  1.0000
  H   H587      1.0  0.9970245412409922  0.3059875970311491  0.41136750153983276  1.0000
  H   H588      1.0  0.533126165359377  0.31881518350655774  0.3716630390970791  1.0000
  H   H589      1.0  0.5469340434072063  0.2869565854743537  0.32564401315131547  1.0000
  H   H590      1.0  0.5353636363171792  0.23290862214303157  0.3024865025963319  1.0000
  H   H591      1.0  0.6145928152826431  0.2141940125833078  0.3429823409989355  1.0000
  H   H592      1.0  0.6255958162801306  0.26390119222434566  0.36548414004432916  1.0000
  C   C777      1.0  0.7467220999939382  0.32822614467879346  0.9917831857134668  1.0000
  C   C778      1.0  0.7483139852233801  0.32820105141573686  0.01961906428044613  1.0000
  C   C779      1.0  0.7391830729680886  0.3516927499238543  0.0345921737421235  1.0000
  C   C780      1.0  0.7280990734001926  0.3754236472687002  0.021316925430669542  1.0000
  C   C781      1.0  0.7229634184606583  0.3715585097705354  0.9934748802977693  1.0000
  C   C782      1.0  0.7329674864188959  0.3488133384623665  0.978753231922588  1.0000
  H   H593      1.0  0.7593401471509551  0.31152695146255854  0.029806231181786158  1.0000
  H   H594      1.0  0.7419116480853083  0.35319593496270324  0.057041762529386836  1.0000
  H   H595      1.0  0.7122486937234127  0.3878966747860697  0.9816083519439684  1.0000
  H   H596      1.0  0.7325320465439189  0.34889153643108434  0.956405597025217  1.0000
  C   C783      1.0  0.7441142258350402  0.4496397768666545  0.9998552205039356  1.0000
  C   C784      1.0  0.720443207472324  0.43769803960633263  0.01987806004912418  1.0000
  C   C785      1.0  0.6987479242207878  0.45615026136675585  0.024946977236110834  1.0000
  C   C786      1.0  0.6988069936822913  0.48319645781636944  0.00879057452333143  1.0000
  C   C787      1.0  0.7210753641763618  0.4930648177413454  0.9877235298155357  1.0000
  C   C788      1.0  0.7447065465944472  0.47754671210250366  0.9848951315798125  1.0000
  C   C789      1.0  0.7178795335342847  0.4039864419432362  0.03728244090121835  1.0000
  C   C790      1.0  0.7426542206473273  0.4207966674483034  0.06112074033387019  1.0000
  C   C791      1.0  0.7321983398950949  0.4360109149247177  0.08332798308044184  1.0000
  C   C792      1.0  0.7535751101214142  0.45620740229519724  0.101190469031339  1.0000
  C   C793      1.0  0.7859761562626792  0.4630020002098978  0.0963560869015444  1.0000
  C   C794      1.0  0.7971504710486685  0.4479422906870419  0.0752255265647633  1.0000
  C   C795      1.0  0.7760090962207918  0.42814697074226854  0.0569951021805853  1.0000
  C   C796      1.0  0.6571274680691371  0.3813784554869121  0.028285144921295524  1.0000
  C   C797      1.0  0.6262680530427746  0.36730474709904065  0.035793420783516404  1.0000
  C   C798      1.0  0.6180686013506664  0.3520537823782386  0.06135095879491743  1.0000
  C   C799      1.0  0.643143184840988  0.35158509557329964  0.07902104788908225  1.0000
  C   C800      1.0  0.6747651343486276  0.3666604547376246  0.07144912159479919  1.0000
  C   C801      1.0  0.6824277161634396  0.3834995603981637  0.04621121725029856  1.0000
  C   C802      1.0  0.5807045958581006  0.33854251107977407  0.07033215095432536  1.0000
  C   C803      1.0  0.5681933147697631  0.4285953396048565  0.10900741354487947  1.0000
  C   C804      1.0  0.5677016545226302  0.425476638033056  0.08058879449837446  1.0000
  C   C805      1.0  0.5728752977108781  0.39774433280896865  0.06878187628180907  1.0000
  C   C806      1.0  0.5774559240201447  0.37177840556333613  0.08453416337457147  1.0000
  C   C807      1.0  0.5801229716881413  0.37632813699643514  0.1129081775942486  1.0000
  C   C808      1.0  0.5748969253969032  0.40423298898469223  0.12498313587617613  1.0000
  C   C809      1.0  0.5692326309974935  0.30620306119021995  0.089216436878317  1.0000
  C   C810      1.0  0.5841347825672272  0.28082475515086075  0.08709287712735361  1.0000
  C   C811      1.0  0.571406898252963  0.25014568724412073  0.10035942149739796  1.0000
  C   C812      1.0  0.5441229908568948  0.24428069015563  0.11628848347989305  1.0000
  C   C813      1.0  0.5291572303789956  0.26865703642345096  0.11816126955007285  1.0000
  C   C814      1.0  0.5409061974522974  0.2988695367947191  0.1047105504111907  1.0000
  C   C815      1.0  0.5258944567689878  0.33103131586074835  0.0465933387851975  1.0000
  C   C816      1.0  0.5073186076898395  0.3251759052997486  0.023783551799032576  1.0000
  C   C817      1.0  0.5166316637179031  0.31133200707047004  0.0009261474521999878  1.0000
  C   C818      1.0  0.5443557384478785  0.30179531436627105  0.0011810321769307741  1.0000
  C   C819      1.0  0.5631291111970645  0.30778921327872216  0.02448037374809542  1.0000
  C   C820      1.0  0.5554698020037678  0.3255446635850549  0.04647144633216089  1.0000
  H   H597      1.0  0.7629306488427452  0.4378138879444051  0.9961573364733644  1.0000
  H   H598      1.0  0.6811473402355939  0.4485105721209966  0.04112010042599683  1.0000
  H   H599      1.0  0.6829018176694213  0.4977616879734818  0.013627217727296912  1.0000
  H   H600      1.0  0.763738837570039  0.48616939223778644  0.9696472695793804  1.0000
  H   H601      1.0  0.7061683643855328  0.43071093844495234  0.08582852556137008  1.0000
  H   H602      1.0  0.745954434592872  0.46964826738105603  0.11796969490212997  1.0000
  H   H603      1.0  0.8225329757218759  0.4515575342004957  0.07129886293852639  1.0000
  H   H604      1.0  0.7839507155430857  0.4172879115672523  0.039740845181687044  1.0000
  H   H605      1.0  0.6633487666199932  0.3925803806591831  0.00770114787730436  1.0000
  H   H606      1.0  0.6081040017255614  0.368742810920504  0.021111373233305697  1.0000
  H   H607      1.0  0.6372154384045523  0.338122112768646  0.09830533838914346  1.0000
  H   H608      1.0  0.6945183227873901  0.36663091168409484  0.08519912473304272  1.0000
  H   H609      1.0  0.5632712362446871  0.44497082551576234  0.06731197251846194  1.0000
  H   H610      1.0  0.5732151795434941  0.39692799337492163  0.04624081676671892  1.0000
  H   H611      1.0  0.5850040633554394  0.35713593568719204  0.12612374501934676  1.0000
  H   H612      1.0  0.5759911082211523  0.40677947414069077  0.14751679551216118  1.0000
  H   H613      1.0  0.6057567016789757  0.28351288012133663  0.07458708143975196  1.0000
  H   H614      1.0  0.5821663435622961  0.23004293978594453  0.09755260624239794  1.0000
  H   H615      1.0  0.507042677140601  0.26521009083333263  0.12979881275601063  1.0000
  H   H616      1.0  0.5293675865330577  0.3177152106439467  0.1080663955853489  1.0000
  H   H617      1.0  0.5188361161773967  0.3430606810067096  0.06427617211559887  1.0000
  H   H618      1.0  0.984042440240236  0.32965137799388566  0.024675648335590772  1.0000
  H   H619      1.0  0.5527466115261647  0.289268624529969  0.9840318123508853  1.0000
  H   H620      1.0  0.5859841270078203  0.3020663895364505  0.024996309763477775  1.0000
  C   C821      1.0  0.883994834701924  0.4927181149010133  0.31921434041778196  1.0000
  C   C822      1.0  0.8932284823373448  0.019864186776016708  0.3017752919934538  1.0000
  C   C823      1.0  0.9238497626529291  0.0317066751242331  0.29278649440274346  1.0000
  C   C824      1.0  0.9460254926746979  0.01463287487690265  0.2969962034047501  1.0000
  C   C825      1.0  0.9355629316389549  0.48516430884208933  0.31214745587242126  1.0000
  C   C826      1.0  0.9054745310693268  0.4752808346425713  0.3241702038962185  1.0000
  H   H621      1.0  0.8781472130433351  0.03557560244334832  0.29681120642712283  1.0000
  H   H622      1.0  0.9297699089742321  0.055450190464293024  0.2824410523094333  1.0000
  H   H623      1.0  0.9506466575049984  0.46935483149173757  0.3168854340216523  1.0000
  H   H624      1.0  0.8998044667039841  0.4534451950639212  0.3375187635930109  1.0000
  C   C827      1.0  0.5112320466198776  0.4943867972537732  0.3090703394778881  1.0000
  C   C828      1.0  0.999859229511037  0.0009428455876652333  0.28332287123612315  1.0000
  C   C829      1.0  0.506483829562986  0.48327014652751793  0.2607861283171776  1.0000
  C   C830      1.0  0.523147754817317  0.46045022449471507  0.26397629842026077  1.0000
  C   C831      1.0  0.5320911635110203  0.4531182128557352  0.28949560372295213  1.0000
  C   C832      1.0  0.5269260398113181  0.4703733615269345  0.31199123620242497  1.0000
  C   C833      1.0  0.9817985126851153  0.029231895747510808  0.28207928044207337  1.0000
  C   C834      1.0  0.5050302262115912  0.062262038307803996  0.29726958782724366  1.0000
  C   C835      1.0  0.5377867936992254  0.07283565658741391  0.2914832934714582  1.0000
  C   C836      1.0  0.5576428508442266  0.10259781392896838  0.3014854633951711  1.0000
  C   C837      1.0  0.5451489565006626  0.12208511113970903  0.31866346052884753  1.0000
  C   C838      1.0  0.5129413559332892  0.1108548894553382  0.3254281833440837  1.0000
  C   C839      1.0  0.9929644058623887  0.08172522955891437  0.3145770828452591  1.0000
  C   C840      1.0  0.9523798728799471  0.01492463847862798  0.23554842952487437  1.0000
  C   C841      1.0  0.9474509520692925  0.019900429635708775  0.20870331254918773  1.0000
  C   C842      1.0  0.9653357631712417  0.04737389947777617  0.19423901552510564  1.0000
  C   C843      1.0  0.9890332634207064  0.07050156487367555  0.20909797276812583  1.0000
  C   C844      1.0  0.9939145414136569  0.06685926776132836  0.23611164254565065  1.0000
  C   C845      1.0  0.9758503407694937  0.038107222877796526  0.2503522987790011  1.0000
  C   C846      1.0  0.961641532445892  0.0512716064477055  0.16174820189663028  1.0000
  C   C847      1.0  0.5253077506079636  0.49751346046551875  0.1256665969324101  1.0000
  C   C848      1.0  0.9961194638906281  0.4803987491482288  0.13673969380438744  1.0000
  C   C849      1.0  0.9769717119678188  0.4970861886247101  0.1479285165634805  1.0000
  C   C850      1.0  0.9863737815351274  0.0317483516553712  0.1503484825830422  1.0000
  C   C851      1.0  0.5179204260217641  0.04770489743283375  0.14395108154449476  1.0000
  C   C852      1.0  0.5367706002739716  0.031298725907679716  0.130294810208249  1.0000
  C   C853      1.0  0.9694916104908922  0.08845096642275449  0.15028537805845157  1.0000
  C   C854      1.0  0.9654366789783903  0.11408355315239643  0.16667035481469916  1.0000
  C   C855      1.0  0.9741789364801365  0.14617881179074174  0.15677157764626007  1.0000
  C   C856      1.0  0.9871949209583541  0.15379570493597422  0.13126193329684477  1.0000
  C   C857      1.0  0.9902202330519009  0.12807006070887844  0.11460213325272205  1.0000
  C   C858      1.0  0.9801950780224117  0.09597929767531081  0.12388281496368876  1.0000
  C   C859      1.0  0.9184927953945455  0.019360775910166637  0.12537306839457488  1.0000
  C   C860      1.0  0.8882402013103329  3.087027799733922e-05  0.11920280253411424  1.0000
  C   C861      1.0  0.8640117553241975  0.4984742175093605  0.13746200422592314  1.0000
  C   C862      1.0  0.8690700412533849  0.019328773374260547  0.16037881315779395  1.0000
  C   C863      1.0  0.9001877442555974  0.038080832602521854  0.16665678836967315  1.0000
  C   C864      1.0  0.925624058115292  0.035395048025484585  0.15066379965379798  1.0000
  H   H625      1.0  0.5070814327160781  0.00659307800568903  0.3272349871589098  1.0000
  H   H626      1.0  0.9988407460055984  0.4867965691747263  0.23967591764793553  1.0000
  H   H627      1.0  0.527841242058799  0.44658997683502144  0.24634197540843722  1.0000
  H   H628      1.0  0.533858410774129  0.4648281278787881  0.3322669049503708  1.0000
  H   H629      1.0  0.5477788950404747  0.05861316955141855  0.27792095948940765  1.0000
  H   H630      1.0  0.5822254309184154  0.11107355084860723  0.2946857967063831  1.0000
  H   H631      1.0  0.5027518816400882  0.12688148751207426  0.3378599802406344  1.0000
  H   H632      1.0  0.9678305025488398  0.07451727021679151  0.3206490947553799  1.0000
  H   H633      1.0  0.9391159421668572  0.49244470381393196  0.2459144268379209  1.0000
  H   H634      1.0  0.9301094585465166  0.49987594126216  0.19781521265483762  1.0000
  H   H635      1.0  0.5046915984091769  0.09203903937941456  0.19837328687067984  1.0000
  H   H636      1.0  0.5128278061314994  0.08586455465871687  0.24505727417491469  1.0000
  H   H637      1.0  0.9869463937721422  0.4531150733314236  0.13440050979838963  1.0000
  H   H638      1.0  0.9528387101602627  0.48297110359063505  0.1541995030006493  1.0000
  H   H639      1.0  0.5281822641787154  0.07366093207166395  0.14890160066579977  1.0000
  H   H640      1.0  0.5612345394187889  0.043659791409157885  0.12388384272467558  1.0000
  H   H641      1.0  0.9550713764286718  0.10858912248604033  0.18722290237249378  1.0000
  H   H642      1.0  0.9712781999366403  0.16610388686620342  0.1698506584123088  1.0000
  H   H643      1.0  0.9997564187485343  0.1333319350942624  0.09403458038451987  1.0000
  H   H644      1.0  0.9810039148164236  0.0759451219095762  0.11009704574310394  1.0000
  H   H645      1.0  0.9381332804125483  0.020289230972766935  0.11117619477926287  1.0000
  H   H646      1.0  0.8834423014379831  0.4858121547509541  0.10074421521086263  1.0000
  H   H647      1.0  0.850932741753933  0.018492215408423142  0.17539460672740256  1.0000
  H   H648      1.0  0.9046498972675929  0.05270541907793759  0.18544179258233814  1.0000
  C   C865      1.0  0.9982903341441351  0.18934028680569195  0.119511336382357  1.0000
  C   C866      1.0  0.5306781482866417  0.21053670618936715  0.13129297167864667  1.0000
  H   H649      1.0  0.5008732245340219  0.18822382588315062  0.0965848664972101  1.0000
  H   H650      1.0  0.9803618266927835  0.20186515600775615  0.12379627748859867  1.0000
  H   H651      1.0  0.5271109500995211  0.21458814418920477  0.1526706057566588  1.0000
  H   H652      1.0  0.5477576918283464  0.19554070296099152  0.12998278197265106  1.0000
  C   C867      1.0  0.8113973441594965  0.4892150486123629  0.1131402460250721  1.0000
  C   C868      1.0  0.8320628462533065  0.4743214880621209  0.13234396006376678  1.0000
  H   H653      1.0  0.8270683093998903  0.00708042341560488  0.09805230363418888  1.0000
  H   H654      1.0  0.8001235288012373  0.00544354167980585  0.12510461722481803  1.0000
  H   H655      1.0  0.8359788842119221  0.45164011229695333  0.1236318357307078  1.0000
  H   H656      1.0  0.8193354758828162  0.4645722202040217  0.15176905381902203  1.0000
  C   C869      1.0  0.5609758545648151  0.45781524292558073  0.12390645346638558  1.0000
  C   C870      1.0  0.5436443342218712  0.478800070682681  0.10800555213492928  1.0000
  H   H657      1.0  0.5479901059246679  0.4485546338825068  0.14310852308750135  1.0000
  H   H658      1.0  0.5838992642352201  0.4742500418609933  0.13193408898222375  1.0000
  H   H659      1.0  0.5618828598454066  0.49664303987416464  0.09491578265461764  1.0000
  H   H660      1.0  0.5259193771208688  0.4633894617663331  0.09351658884716359  1.0000
  C   C871      1.0  0.8511528398129296  0.4821372608567187  0.3328527287128571  1.0000
  C   C872      1.0  0.8289195576454376  0.4478003671722222  0.3240982606271412  1.0000
  H   H661      1.0  0.8541029104529272  0.48082338365362387  0.3554655259448271  1.0000
  H   H662      1.0  0.8391596544948182  0.0017118340496023682  0.32981672275779667  1.0000
  H   H663      1.0  0.8217604816299197  0.45045166406620596  0.3029901054798727  1.0000
  H   H664      1.0  0.8426983539599158  0.4294261210736806  0.3225052310975733  1.0000
  C   C873      1.0  0.5651704712158946  0.18440220404651406  0.309370445686039  1.0000
  C   C874      1.0  0.5663754636303837  0.15545915903420535  0.3291486781163649  1.0000
  H   H665      1.0  0.582502517747808  0.18658610600065428  0.29206706171197083  1.0000
  H   H666      1.0  0.5409180650626663  0.17841285402926266  0.2992243892241715  1.0000
  H   H667      1.0  0.5570244552254532  0.15921359238770694  0.34969567576483074  1.0000
  H   H668      1.0  0.591076074672704  0.15550369767064157  0.33143852959499553  1.0000
  C   C875      1.0  0.5439817641982417  0.42207763808332  0.2947947393709858  1.0000
  C   C876      1.0  0.5797039861010332  0.43129785454562797  0.30279071984843003  1.0000
  H   H669      1.0  0.5303299229887573  0.40601308712524364  0.3116705747745377  1.0000
  H   H670      1.0  0.5390272910608367  0.4048222472988857  0.27654375976707146  1.0000
  H   H671      1.0  0.5937097655310059  0.43571253471580873  0.2836126998344058  1.0000
  H   H672      1.0  0.5876287669268372  0.4561226269730566  0.313351991748972  1.0000
  C   C877      1.0  0.7387931451757893  0.04184861264058091  0.45888294748240344  1.0000
  C   C878      1.0  0.7134797687266797  0.007951444067056277  0.4665664886198549  1.0000
  H   H673      1.0  0.7325340156992418  0.05160469853220533  0.43889299628879297  1.0000
  H   H674      1.0  0.7623012116882106  0.03875761348940622  0.4546136283431614  1.0000
  H   H675      1.0  0.688803316346591  0.010269709018536457  0.4649076823871306  1.0000
  H   H676      1.0  0.7162935804728804  0.0020772330174678704  0.4890641766213013  1.0000
  C   C879      1.0  0.9794911469007014  0.24450782898703485  0.46008953888092774  1.0000
  C   C880      1.0  0.5065122789000833  0.2773007467495285  0.45984698728803874  1.0000
  H   H677      1.0  0.9885491700829272  0.22353635795029345  0.4555817791927439  1.0000
  H   H678      1.0  0.9628187074280256  0.2445911499946723  0.44286837578580507  1.0000
  H   H679      1.0  0.997976941278157  0.29911858700628036  0.46326326480822183  1.0000
  H   H680      1.0  0.5230314271474512  0.2785962465341164  0.4771359826082914  1.0000
  C   C881      1.0  0.741012034821577  0.2788657154129349  0.4686713431208582  1.0000
  C   C882      1.0  0.7704177725224384  0.2850259256623658  0.48700248808174434  1.0000
  H   H681      1.0  0.7382272482566242  0.25765523600754026  0.4537503091142342  1.0000
  H   H682      1.0  0.7188003470213763  0.271133086509647  0.48117713880845986  1.0000
  H   H683      1.0  0.7729796448742382  0.3048332332155791  0.5026100664275628  1.0000
  H   H684      1.0  0.7920555746752068  0.2938428761996477  0.4743630834658564  1.0000
  C   C883      1.0  0.9149531843120268  0.05401754818582621  0.6126853236377462  1.0000
  C   C884      1.0  0.9373209818798415  0.08995281240910982  0.6077171270274679  1.0000
  H   H685      1.0  0.9054565800268384  0.04383329347301572  0.5928248703284748  1.0000
  H   H686      1.0  0.8959579120547074  0.05378826875086906  0.6278468537152856  1.0000
  H   H687      1.0  0.9565823952944371  0.08982669210110103  0.5929235353832094  1.0000
  H   H688      1.0  0.9502110835485016  0.09961126420671867  0.6264573208611077  1.0000
  C   C885      1.0  0.6380334642452887  0.06069432311327319  0.6074704643906316  1.0000
  C   C886      1.0  0.6603499754443551  0.09500322353859844  0.617221860633561  1.0000
  H   H689      1.0  0.6513865086058012  0.04172730641347011  0.6065886454639418  1.0000
  H   H690      1.0  0.6321536616997661  0.06446870254728204  0.5858710394916642  1.0000
  H   H691      1.0  0.6687830136460476  0.09145334552098373  0.6379333000399177  1.0000
  H   H692      1.0  0.6460053049801555  0.11226328968342843  0.6194870458485079  1.0000
  C   C887      1.0  0.9535965223763037  0.3301422968970273  0.6276495236058166  1.0000
  C   C888      1.0  0.9585487171633652  0.36264733016126455  0.6116575626509282  1.0000
  H   H693      1.0  0.9762447405760627  0.3299940254100708  0.638066908968204  1.0000
  H   H694      1.0  0.9359245935818995  0.3292300316736346  0.6448974084865965  1.0000
  H   H695      1.0  0.9356553997230902  0.3643272397737857  0.6053676654116019  1.0000
  H   H696      1.0  0.9720036685981018  0.36127052681074934  0.5925103754665085  1.0000
  C   C889      1.0  0.9699817998855418  0.27372045630851954  0.9776905270622183  1.0000
  C   C890      1.0  0.9972555011459485  0.30714572337262924  0.9749690159691241  1.0000
  H   H697      1.0  0.9531860956598961  0.27311691366144103  0.9951007981789154  1.0000
  H   H698      1.0  0.9797832812349391  0.2524006621575325  0.9818961250202776  1.0000
  H   H699      1.0  0.5119867051233279  0.3086133421292645  0.9564384853767952  1.0000
  H   H700      1.0  0.9866528844811162  0.3282024620170384  0.9725784439137853  1.0000
  C   C891      1.0  0.7413123892341504  0.05486129574491289  0.9789752282957408  1.0000
  C   C892      1.0  0.7197497329542738  0.021029035250187747  0.968401623263357  1.0000
  H   H701      1.0  0.7659688941234499  0.05317890815972304  0.9825395033980255  1.0000
  H   H702      1.0  0.7323813990840032  0.05991760077257537  0.999520170422233  1.0000
  H   H703      1.0  0.6947109063475823  0.02277281126614939  0.9673635846666708  1.0000
  H   H704      1.0  0.7262811767995697  0.01542199034148875  0.9470611941330676  1.0000
  C   C893      1.0  0.7296067580984648  0.27296414965750027  0.9656821676922365  1.0000
  C   C894      1.0  0.757340989744012  0.3030424996828987  0.9747531861618922  1.0000
  H   H705      1.0  0.7111180207069977  0.282471896475128  0.9553387811209  1.0000
  H   H706      1.0  0.7163427539239299  0.2598708677888394  0.9835631533408964  1.0000
  H   H707      1.0  0.775492820701251  0.2941266406294172  0.9862312208626759  1.0000
  H   H708      1.0  0.7704374782074144  0.31677556411401425  0.9565823719149497  1.0000
  C   C895      1.0  0.9580382095342108  0.12616506044523465  0.8049835153153447  1.0000
  C   C896      1.0  0.9269132377059877  0.11732076894861727  0.8234523802484645  1.0000
  H   H709      1.0  0.9776884872535324  0.1457116171239498  0.8149445747995849  1.0000
  H   H710      1.0  0.9533118534237585  0.13717756495800043  0.784695513435557  1.0000
  H   H711      1.0  0.9291026932833505  0.10007207093253259  0.8398328348563701  1.0000
  H   H712      1.0  0.9061481316868738  0.10325903645202213  0.8111254149725692  1.0000
  C   C897      1.0  0.6527653834180471  0.07208038183580605  0.8169877636413793  1.0000
  C   C898      1.0  0.678697013272654  0.10437534551667396  0.8083319606103978  1.0000
  H   H713      1.0  0.646493171493959  0.07377461688139494  0.838759852386132  1.0000
  H   H714      1.0  0.6648946721909692  0.05172284012014137  0.8168418215812511  1.0000
  H   H715      1.0  0.6670997138311737  0.12315889592368731  0.8012465763672745  1.0000
  H   H716      1.0  0.6926919831676173  0.09974145899322356  0.7900295929571426  1.0000
  C   C899      1.0  0.9386138795420145  0.39692633576498  0.8320917391036569  1.0000
  C   C900      1.0  0.9393402366161875  0.3652992109272371  0.8166753243013866  1.0000
  H   H717      1.0  0.9487114071986542  0.3949840993912204  0.8525277385655463  1.0000
  H   H718      1.0  0.9138271962107796  0.3978829966629206  0.8359725645898817  1.0000
  H   H719      1.0  0.9637603617259007  0.3691106687933515  0.8092487234106396  1.0000
  H   H720      1.0  0.9256131651352997  0.36391978151032967  0.7975589699465714  1.0000
  C   C901      1.0  0.9203737219423193  0.6482551321670149  0.8364206683801343  1.0000
  C   C902      1.0  0.9213748057858185  0.65207628914776  0.8644641546664508  1.0000
  C   C903      1.0  0.9135591865442176  0.6781551313055908  0.8761436305206507  1.0000
  C   C904      1.0  0.9062469841556904  0.7027951280313388  0.8606491058833823  1.0000
  C   C905      1.0  0.9038319848721215  0.6984532224255362  0.832383623223913  1.0000
  C   C906      1.0  0.911075369364322  0.6713709302869783  0.8201697116565677  1.0000
  H   H721      1.0  0.9267172955204225  0.6339311985102106  0.8783101506808632  1.0000
  H   H722      1.0  0.9141886772569405  0.6788159920660156  0.8984254887148654  1.0000
  H   H723      1.0  0.8965253574381197  0.7154447812283791  0.818965175780017  1.0000
  H   H724      1.0  0.9085476464055093  0.6678640928863158  0.7984675106589185  1.0000
  C   C907      1.0  0.9363991325887245  0.7798649071404374  0.8444207599015257  1.0000
  C   C908      1.0  0.9077850164982054  0.7693845874471624  0.8587703587994789  1.0000
  C   C909      1.0  0.8890082657450893  0.7905452209178241  0.8596419001163006  1.0000
  C   C910      1.0  0.8993981504072117  0.8217554240742028  0.8463673392105591  1.0000
  C   C911      1.0  0.9282408903362984  0.8321545529978864  0.8322171259440485  1.0000
  C   C912      1.0  0.9462260194004539  0.8108430519044587  0.8313414735832796  1.0000
  C   C913      1.0  0.8993526804718819  0.7345384706559008  0.87487126241897  1.0000
  C   C914      1.0  0.9210882091777397  0.7483318716184584  0.9018232665372856  1.0000
  C   C915      1.0  0.9095033655659944  0.7651302031972488  0.9219920481426025  1.0000
  C   C916      1.0  0.9248862541172921  0.7738366012801075  0.9462287077337449  1.0000
  C   C917      1.0  0.9521816363966525  0.7652596686746798  0.9508988536578461  1.0000
  C   C918      1.0  0.9658721178279555  0.7519098998407722  0.9304813538937193  1.0000
  C   C919      1.0  0.9511021031850522  0.744372353864534  0.9056136490566705  1.0000
  C   C920      1.0  0.8389624259888391  0.716007945590133  0.8621003043967693  1.0000
  C   C921      1.0  0.8072695687887447  0.700845221178322  0.8679605975436057  1.0000
  C   C922      1.0  0.7976834080877786  0.6846182834636311  0.8927563591115771  1.0000
  C   C923      1.0  0.8219697348049438  0.6845584556648097  0.9114102210223242  1.0000
  C   C924      1.0  0.8532989681216462  0.6998035808309309  0.9055725386171978  1.0000
  C   C925      1.0  0.8626080893499353  0.7176294670217596  0.8817942604261761  1.0000
  C   C926      1.0  0.7611940677742403  0.668269257562345  0.9015724928565021  1.0000
  C   C927      1.0  0.7415853368606471  0.7498646892047681  0.9474003552587175  1.0000
  C   C928      1.0  0.7365408492490855  0.7487659010835441  0.9195110331204238  1.0000
  C   C929      1.0  0.7444328535792074  0.7242217115522909  0.904509833756828  1.0000
  C   C930      1.0  0.7555276089449936  0.6998171143099315  0.9172129595538986  1.0000
  C   C931      1.0  0.7645987893443354  0.7056256682240573  0.9446233450723353  1.0000
  C   C932      1.0  0.7566958204748927  0.7292798533966585  0.9599863163032911  1.0000
  C   C933      1.0  0.7537839794275978  0.635823156879368  0.9208820662768391  1.0000
  C   C934      1.0  0.770545246358261  0.6120603375307715  0.9180516125191422  1.0000
  C   C935      1.0  0.7644240922158377  0.5850982981402137  0.9356242698717567  1.0000
  C   C936      1.0  0.7432683085021393  0.5819659737019595  0.957349081611116  1.0000
  C   C937      1.0  0.724989175744274  0.6035312745784184  0.9588331684760812  1.0000
  C   C938      1.0  0.7296799822521463  0.6296942550542863  0.9403930808505924  1.0000
  C   C939      1.0  0.7083419585647575  0.6527051377882471  0.8736770041522874  1.0000
  C   C940      1.0  0.6895201312541842  0.6375224080499758  0.8514465340074138  1.0000
  C   C941      1.0  0.7018157716265124  0.6215359401195364  0.8314545272918297  1.0000
  C   C942      1.0  0.7328783748099138  0.6198278237887128  0.8342747034396584  1.0000
  C   C943      1.0  0.7510451010268362  0.6342942747045653  0.8565997275953192  1.0000
  C   C944      1.0  0.740295729309005  0.6529693301437466  0.8758640795322362  1.0000
  H   H725      1.0  0.9528969230177378  0.7655053854080396  0.8438739910565386  1.0000
  H   H726      1.0  0.8660486233065229  0.7831510442129808  0.8703450030330234  1.0000
  H   H727      1.0  0.8841829611324138  0.8382366688029832  0.8471052715990943  1.0000
  H   H728      1.0  0.9684890550863339  0.8166026610875287  0.8206404261885304  1.0000
  H   H729      1.0  0.8873084599540042  0.7706443141700503  0.9186888243309694  1.0000
  H   H730      1.0  0.9146628964186362  0.7855654719935691  0.9621672251173189  1.0000
  H   H731      1.0  0.9890082727141916  0.7478074356573744  0.9326314298781426  1.0000
  H   H732      1.0  0.9627916040102957  0.7347124763429423  0.888939254806535  1.0000
  H   H733      1.0  0.8467749683286008  0.7278351104559004  0.8424680140265715  1.0000
  H   H734      1.0  0.7886234758013717  0.7014543782299332  0.8532430602123716  1.0000
  H   H735      1.0  0.8164340145494366  0.6720982358422717  0.9310014009530493  1.0000
  H   H736      1.0  0.8706449833789214  0.699523115428794  0.9210506190786771  1.0000
  H   H737      1.0  0.7245576198838453  0.7651751306645831  0.9102488511072198  1.0000
  H   H738      1.0  0.739177424783712  0.7227847208693425  0.8829494637753595  1.0000
  H   H739      1.0  0.7776827017760689  0.6909017158371993  0.9548824552427528  1.0000
  H   H740      1.0  0.7619495646850297  0.7322066181692919  0.9819475130696185  1.0000
  H   H741      1.0  0.7871430604940406  0.6129501224063201  0.9015971591201858  1.0000
  H   H742      1.0  0.778588854383967  0.5683989856934083  0.9342018486660005  1.0000
  H   H743      1.0  0.7056799021347998  0.5996686997667247  0.974076919432566  1.0000
  H   H744      1.0  0.7136845014069693  0.6454049143513385  0.9415010071943821  1.0000
  H   H745      1.0  0.6975618142091349  0.6643151742908068  0.8890276422514014  1.0000
  H   H746      1.0  0.6643814505024329  0.636532838215442  0.8505503264269083  1.0000
  H   H747      1.0  0.7437500790461631  0.6054379334447868  0.8199949922888087  1.0000
  H   H748      1.0  0.7752570950202604  0.6328763614218921  0.8584435308056707  1.0000
  C   C945      1.0  0.9211348521515166  0.614992798093587  0.5964282003482587  1.0000
  C   C946      1.0  0.9180727048208012  0.6404298829804792  0.6133307575374679  1.0000
  C   C947      1.0  0.9108030974237494  0.667448689329217  0.602808540554425  1.0000
  C   C948      1.0  0.9095629911222906  0.671965612302037  0.574469059103905  1.0000
  C   C949      1.0  0.9114727288277704  0.645000207712624  0.5574637258160141  1.0000
  C   C950      1.0  0.9145802671686005  0.6159494801958079  0.5685532668637805  1.0000
  H   H749      1.0  0.9235321242052359  0.6395720087933889  0.6350144588373545  1.0000
  H   H750      1.0  0.9080592480783827  0.6852842377879845  0.6177830181323636  1.0000
  H   H751      1.0  0.9080951848414708  0.6462800295994113  0.5350893691329859  1.0000
  H   H752      1.0  0.916935857316444  0.5968533464222986  0.5551697632934363  1.0000
  C   C951      1.0  0.9563131655095243  0.7149015752815243  0.5330153474615871  1.0000
  C   C952      1.0  0.9263271603515846  0.7191548337288565  0.5357635803403384  1.0000
  C   C953      1.0  0.9161854072694785  0.7361133130803  0.5149329206595109  1.0000
  C   C954      1.0  0.9336271280297241  0.7453348099846646  0.49103336667204467  1.0000
  C   C955      1.0  0.9621429194348294  0.7389189743172252  0.4879171953600124  1.0000
  C   C956      1.0  0.9741930118848435  0.7247451049761986  0.5098413927308144  1.0000
  C   C957      1.0  0.9052214044042516  0.7061744642257777  0.5622777582782698  1.0000
  C   C958      1.0  0.9168774504890679  0.7391683488386838  0.5808925652715177  1.0000
  C   C959      1.0  0.9021061516156839  0.7645494445168384  0.5807815670849413  1.0000
  C   C960      1.0  0.9131607491113749  0.7934775029007974  0.5957190452673544  1.0000
  C   C961      1.0  0.9408218557002154  0.79885473584785  0.6108189096856848  1.0000
  C   C962      1.0  0.9566998335028671  0.774761253190112  0.6108374093834474  1.0000
  C   C963      1.0  0.9453816333337944  0.7459774750469873  0.5957087676574861  1.0000
  C   C964      1.0  0.8569341839479806  0.676776788799048  0.5310811012843956  1.0000
  C   C965      1.0  0.8249112426855582  0.6634140915542107  0.5265671750302908  1.0000
  C   C966      1.0  0.8019532085505776  0.6664113875979998  0.5451532047159079  1.0000
  C   C967      1.0  0.8121947271290224  0.6823623731001531  0.569747525130463  1.0000
  C   C968      1.0  0.8444946115322107  0.6934724690753395  0.5753549890745422  1.0000
  C   C969      1.0  0.8676252133051069  0.6920748651744958  0.5558398634568417  1.0000
  C   C970      1.0  0.7650306417202714  0.6545569887423748  0.5368858953379437  1.0000
  C   C971      1.0  0.7684349345001112  0.7517423040603807  0.5006367653328722  1.0000
  C   C972      1.0  0.7781574964476264  0.7289691490238331  0.48565612118901275  1.0000
  C   C973      1.0  0.7757289147535472  0.6976046036966412  0.4960591178975847  1.0000
  C   C974      1.0  0.7644434261290542  0.6890464694319804  0.5228877906974823  1.0000
  C   C975      1.0  0.7577214366840718  0.7138443195759576  0.5383967039885662  1.0000
  C   C976      1.0  0.7596953687282806  0.7454032361411868  0.5275106596161898  1.0000
  C   C977      1.0  0.7380276502387277  0.641051070013285  0.56046889894147  1.0000
  C   C978      1.0  0.7433350538643971  0.6236226228994076  0.5833797468596172  1.0000
  C   C979      1.0  0.7193103107890706  0.6089149782631835  0.6019349437156297  1.0000
  C   C980      1.0  0.6885149248423061  0.6101838339177066  0.5974970717745496  1.0000
  C   C981      1.0  0.6825869720992545  0.6273961256317905  0.574695166521005  1.0000
  C   C982      1.0  0.7071764011473455  0.6432226275536237  0.5574452261182513  1.0000
  C   C983      1.0  0.7331772523848252  0.619020648820719  0.4966408306161238  1.0000
  C   C984      1.0  0.7273395780450057  0.5932863600950838  0.4782665196937912  1.0000
  C   C985      1.0  0.7417601620600869  0.5682762435993218  0.4810764182317517  1.0000
  C   C986      1.0  0.762767110829361  0.5701193818706048  0.5026306216472992  1.0000
  C   C987      1.0  0.7679373422513924  0.5954393932264275  0.5216606440792215  1.0000
  C   C988      1.0  0.7551945330329214  0.6220090064849477  0.5177017087579986  1.0000
  H   H753      1.0  0.9649581853081871  0.7031709433446302  0.5495232444318581  1.0000
  H   H754      1.0  0.8931201326811438  0.7397110273613272  0.5163471197773725  1.0000
  H   H755      1.0  0.9239667718328499  0.7553530549126979  0.47428086258691093  1.0000
  H   H756      1.0  0.9956052264797721  0.7176775841841687  0.5066203897981267  1.0000
  H   H757      1.0  0.8809370618036497  0.7624151522069553  0.5687526524952232  1.0000
  H   H758      1.0  0.9006986376136265  0.8130133198678632  0.5952853301309172  1.0000
  H   H759      1.0  0.9776585490736209  0.7781437274677128  0.6240133052344544  1.0000
  H   H760      1.0  0.9585257797440062  0.728037384916583  0.5963809233428652  1.0000
  H   H761      1.0  0.8727567945039434  0.6726455128671327  0.5159339598606716  1.0000
  H   H762      1.0  0.8168274922420842  0.6520576821512605  0.5076255400432347  1.0000
  H   H763      1.0  0.7948589348006243  0.6849993482452321  0.5856079326790387  1.0000
  H   H764      1.0  0.8521830882167666  0.7019808378814207  0.5960047628216898  1.0000
  H   H765      1.0  0.7867682534132691  0.7329535129331808  0.46468157497003065  1.0000
  H   H766      1.0  0.7835463992683747  0.6807760913482314  0.4833416034466986  1.0000
  H   H767      1.0  0.7509829881763698  0.7087014835030572  0.559774132514381  1.0000
  H   H768      1.0  0.7528877494553492  0.7637938155837138  0.5393422440964388  1.0000
  H   H769      1.0  0.766852656296616  0.6206401362921222  0.5854804903166733  1.0000
  H   H770      1.0  0.7239105154535976  0.596706332552203  0.6198960947212614  1.0000
  H   H771      1.0  0.658977675398591  0.6293596252554524  0.5702346838382147  1.0000
  H   H772      1.0  0.7013886916373939  0.656336169911528  0.5399424565127405  1.0000
  H   H773      1.0  0.7220947382138084  0.6384221126936441  0.49135197257795826  1.0000
  H   H774      1.0  0.7110325647045372  0.592760244730712  0.4619148423935166  1.0000
  H   H775      1.0  0.7748300938351973  0.5510123008148992  0.5052288014219751  1.0000
  H   H776      1.0  0.7843721580676691  0.5968698493869038  0.5385549791805362  1.0000
  C   C989      1.0  0.6073759380925801  0.5482186974268665  0.6237378652899872  1.0000
  C   C990      1.0  0.5832114723435046  0.5634589353346998  0.621620677657142  1.0000
  C   C991      1.0  0.5535694507452024  0.5482220055384984  0.6329178264242458  1.0000
  C   C992      1.0  0.5477012296399073  0.5169540360478788  0.6455736752159228  1.0000
  C   C993      1.0  0.5736630287538861  0.50512206021934  0.6507535905894856  1.0000
  C   C994      1.0  0.6027067859365287  0.5199558013670449  0.6393187218501484  1.0000
  H   H777      1.0  0.5860408047331228  0.586037388638044  0.610021367159914  1.0000
  H   H778      1.0  0.5344228670307042  0.5595427494426175  0.6299845965678671  1.0000
  H   H779      1.0  0.5703964587854988  0.9823709846612503  0.6629243361953846  1.0000
  H   H780      1.0  0.6209842049572742  0.5082353356534027  0.6427000554967797  1.0000
  C   C995      1.0  0.5149110702665097  0.9492815906502767  0.624173635948398  1.0000
  C   C996      1.0  0.5024963648817926  0.9587339289745593  0.6486672357862451  1.0000
  C   C997      1.0  0.9772806373335556  0.9360269849575064  0.6616560791376511  1.0000
  C   C998      1.0  0.9633405486616093  0.9051579704566661  0.6500896569920012  1.0000
  C   C999      1.0  0.9749670674115212  0.8955893448161696  0.626461431905055  1.0000
  C   C1000     1.0  0.5021354363556892  0.9171560402951466  0.6144695167108623  1.0000
  C   C1001     1.0  0.5135144983876018  0.996866694310387  0.6579766948048426  1.0000
  C   C1002     1.0  0.984300548490716  0.5095824571715479  0.646656935296029  1.0000
  C   C1003     1.0  0.9626495248633641  0.5184822845858987  0.6632491086672191  1.0000
  C   C1004     1.0  0.9390231899011745  0.5302753093867748  0.652338398031159  1.0000
  C   C1005     1.0  0.936547949815783  0.5338324063258953  0.6244757976785226  1.0000
  C   C1006     1.0  0.9566563700386969  0.5225116286352223  0.6075259634839199  1.0000
  C   C1007     1.0  0.9801387067565224  0.5108524229401399  0.6184613403836635  1.0000
  C   C1008     1.0  0.5217986838382221  0.9795478754055958  0.7086268117572082  1.0000
  C   C1009     1.0  0.5224659362479126  0.9857383549917557  0.7359837537043302  1.0000
  C   C1010     1.0  0.5226228567311537  0.5160903413880916  0.7464751378577686  1.0000
  C   C1011     1.0  0.5273033304578426  0.5423930116413296  0.7276527231451835  1.0000
  C   C1012     1.0  0.5238147023499896  0.5357071911755665  0.7004890002635832  1.0000
  C   C1013     1.0  0.5199528397407509  0.5039395470169312  0.6899318394069884  1.0000
  C   C1014     1.0  0.5187816879595384  0.5207972433034056  0.7783788944105735  1.0000
  C   C1015     1.0  0.9578880844531507  0.9296842572214479  0.8184924057260808  1.0000
  C   C1016     1.0  0.987242373117193  0.9471495616872824  0.8294503933675345  1.0000
  C   C1017     1.0  0.5051438966607815  0.9767398658396163  0.8176866411124155  1.0000
  C   C1018     1.0  0.9964339511158997  0.9877985017565926  0.7929114347641802  1.0000
  C   C1019     1.0  0.9661144374074869  0.9702248030215267  0.7827222123408665  1.0000
  C   C1020     1.0  0.9471628130520761  0.9411427128468908  0.7951149543199181  1.0000
  C   C1021     1.0  0.9990979271336647  0.5465225427349873  0.7861035459874977  1.0000
  C   C1022     1.0  0.9767579631026201  0.5533275525422077  0.7688474390188232  1.0000
  C   C1023     1.0  0.9628002303384001  0.5784764279897104  0.7754518311201157  1.0000
  C   C1024     1.0  0.9698917113818741  0.5961827724207421  0.7997419342825728  1.0000
  C   C1025     1.0  0.9899357785860466  0.5874381320536873  0.8180525240237227  1.0000
  C   C1026     1.0  0.503630574858616  0.5626068688048604  0.8116557396417674  1.0000
  C   C1027     1.0  0.5716827698242015  0.569020926762061  0.7858815496143451  1.0000
  C   C1028     1.0  0.604004724889883  0.5815545195638785  0.7935301468782446  1.0000
  C   C1029     1.0  0.62037793110289  0.5596941300915933  0.8021037290302807  1.0000
  C   C1030     1.0  0.6050700964856184  0.5254603582552704  0.8012815202408263  1.0000
  C   C1031     1.0  0.5737938707264194  0.5131061933158916  0.7930470992144403  1.0000
  C   C1032     1.0  0.5558345293473429  0.5348704332499402  0.7863707638440705  1.0000
  H   H781      1.0  0.5326197233057957  0.9665381659734016  0.6121570544905217  1.0000
  H   H782      1.0  0.9653943386430623  0.9425842834765789  0.6793561788526311  1.0000
  H   H783      1.0  0.9433251181735655  0.8886317577078758  0.6597136108725652  1.0000
  H   H784      1.0  0.5121305020617825  0.9105995010095816  0.5958629318055089  1.0000
  H   H785      1.0  0.9610408752692247  0.5139384985467902  0.6853377477959118  1.0000
  H   H786      1.0  0.9238554241789083  0.5407241981335074  0.6652121321520416  1.0000
  H   H787      1.0  0.9563706449680729  0.5252756409687698  0.5854064915256224  1.0000
  H   H788      1.0  0.9953234103909795  0.5033034156721806  0.6041405187933413  1.0000
  H   H789      1.0  0.5216073638490996  0.954536306774024  0.7017428686675012  1.0000
  H   H790      1.0  0.5201988712805512  0.9645336546689558  0.7494022011482263  1.0000
  H   H791      1.0  0.5304565412697766  0.5674064240036655  0.7349313264538285  1.0000
  H   H792      1.0  0.5239008865276975  0.5561845258012461  0.6866142269415398  1.0000
  H   H793      1.0  0.9942321237695603  0.9371845669558856  0.8480302564872306  1.0000
  H   H794      1.0  0.5270815797535464  0.9895901563120093  0.8280937488649346  1.0000
  H   H795      1.0  0.9580542488532292  0.9777282402742982  0.764047795210383  1.0000
  H   H796      1.0  0.923660646440598  0.9290595953019442  0.7867448688432722  1.0000
  H   H797      1.0  0.9689685121113965  0.540451652837462  0.7493775348845427  1.0000
  H   H798      1.0  0.9470558987616045  0.5847513740571003  0.7604136323609945  1.0000
  H   H799      1.0  0.9967276644996945  0.6015487979642226  0.836953048571306  1.0000
  H   H800      1.0  0.5196681964545835  0.5567983732305662  0.8265623849945758  1.0000
  H   H801      1.0  0.5600643890998895  0.5866865976202931  0.7790304948762161  1.0000
  H   H802      1.0  0.6152488078002035  0.6090190024902443  0.7931539863570694  1.0000
  H   H803      1.0  0.6174220872942204  0.5075854677324958  0.8079434669573806  1.0000
  H   H804      1.0  0.5635680184527413  0.9855570898585023  0.7924386647102439  1.0000
  C   C1033     1.0  0.7408469227904166  0.8098582808303029  0.4529918215059625  1.0000
  C   C1034     1.0  0.7305390265526464  0.833938894195512  0.46558806016040416  1.0000
  C   C1035     1.0  0.7243622487946882  0.8589385673283796  0.45069991450535835  1.0000
  C   C1036     1.0  0.7323297440536505  0.862658627585405  0.4226255953894374  1.0000
  C   C1037     1.0  0.7436243597421882  0.8383100520711291  0.41041785038801293  1.0000
  C   C1038     1.0  0.7470556089925932  0.8116295147527587  0.42559376911936775  1.0000
  H   H805      1.0  0.7233434839423226  0.8303008518718862  0.48696754420819255  1.0000
  H   H806      1.0  0.7137049321629471  0.8759739107157776  0.46094669154393403  1.0000
  H   H807      1.0  0.7476008809712777  0.8391316310300075  0.38833948886918823  1.0000
  H   H808      1.0  0.7543384584369778  0.7928774648097473  0.4151147180977713  1.0000
  C   C1039     1.0  0.7845614717942447  0.9114431369464552  0.3887362046101  1.0000
  C   C1040     1.0  0.7525839679267304  0.9071014922566324  0.38281835684800186  1.0000
  C   C1041     1.0  0.746466177227847  0.9182019764814808  0.35690028028242504  1.0000
  C   C1042     1.0  0.770402329200773  0.9319569254643222  0.3382402518057572  1.0000
  C   C1043     1.0  0.8016383741036461  0.9342907122861319  0.34446848338587427  1.0000
  C   C1044     1.0  0.8086852495447392  0.9236402142824651  0.3697308484418612  1.0000
  C   C1045     1.0  0.724510073249024  0.8908692882304531  0.40433761638999755  1.0000
  C   C1046     1.0  0.7239708235213052  0.9245498029378991  0.41936964858319786  1.0000
  C   C1047     1.0  0.7031444279481223  0.9419486544323118  0.4104322390418284  1.0000
  C   C1048     1.0  0.698558932938593  0.9677828926316372  0.4262679803267204  1.0000
  C   C1049     1.0  0.7179891408001317  0.9797713319351188  0.44831962005988785  1.0000
  C   C1050     1.0  0.7405225057407802  0.9644694835118915  0.455937384494183  1.0000
  C   C1051     1.0  0.7438794925365056  0.9377787430221514  0.44121368059702804  1.0000
  C   C1052     1.0  0.6863695229344152  0.8504194848599549  0.3683330934997887  1.0000
  C   C1053     1.0  0.6566439107707583  0.8332275203247419  0.35967523494683373  1.0000
  C   C1054     1.0  0.6299592392079801  0.8303563590783464  0.376209853702762  1.0000
  C   C1055     1.0  0.6348104597626265  0.8460428343234283  0.4013509429623044  1.0000
  C   C1056     1.0  0.6643424126665858  0.8648537530315964  0.40945586610435125  1.0000
  C   C1057     1.0  0.6905467308233043  0.8680465741647814  0.3929829130076321  1.0000
  C   C1058     1.0  0.5944405867754762  0.8153939461543104  0.36504220281999744  1.0000
  C   C1059     1.0  0.5866316380129062  0.9026663750802508  0.31922872907159744  1.0000
  C   C1060     1.0  0.5967767532890285  0.8787600857616588  0.3064084385220294  1.0000
  C   C1061     1.0  0.5984606185036649  0.851248516449888  0.3212143632981298  1.0000
  C   C1062     1.0  0.5912680140359738  0.8472510385439636  0.3488138568381409  1.0000
  C   C1063     1.0  0.5841194381654251  0.8741161590383882  0.36190547628822883  1.0000
  C   C1064     1.0  0.5814292369566065  0.9012102423048215  0.3471118846439703  1.0000
  C   C1065     1.0  0.5686876746960077  0.8015125276931007  0.3887793705715464  1.0000
  C   C1066     1.0  0.5746856352365318  0.7820107209174669  0.4104322390418284  1.0000
  C   C1067     1.0  0.5543879536812677  0.7735879353923334  0.43299775926840484  1.0000
  C   C1068     1.0  0.5267132292001704  0.7831421008543319  0.434171462315351  1.0000
  C   C1069     1.0  0.5190208259343964  0.7994683607169174  0.41167582983587814  1.0000
  C   C1070     1.0  0.5386448663903134  0.8066781216499697  0.38936930537797987  1.0000
  C   C1071     1.0  0.5627683242439904  0.7718113439087203  0.3288917378696604  1.0000
  C   C1072     1.0  0.5559762832138798  0.7413909535100837  0.3162112228142997  1.0000
  C   C1073     1.0  0.5736346276177458  0.719412214710534  0.32169535543996064  1.0000
  C   C1074     1.0  0.5989759012790553  0.729431854900302  0.33916112564994605  1.0000
  C   C1075     1.0  0.6055968677471539  0.7599413893371499  0.3520163600730658  1.0000
  C   C1076     1.0  0.588183340454982  0.7818802341992479  0.346994719891473  1.0000
  H   H809      1.0  0.7917115042615465  0.904338244486157  0.40846510451305873  1.0000
  H   H810      1.0  0.7220091721210745  0.9160051622884372  0.35104204265756234  1.0000
  H   H811      1.0  0.7639241168467406  0.9405628089745899  0.31859151725977025  1.0000
  H   H812      1.0  0.8333221625182835  0.9272767311254345  0.37592824719237383  1.0000
  H   H813      1.0  0.6890446506243576  0.9360655837141997  0.39126038559372506  1.0000
  H   H814      1.0  0.6806405535247612  0.9798731710450682  0.4208187915746113  1.0000
  H   H815      1.0  0.7541522541200839  0.9714494068551643  0.47429114019677915  1.0000
  H   H816      1.0  0.7613144532698226  0.9257475832336309  0.44770090794582335  1.0000
  H   H817      1.0  0.7064701867407992  0.8514027883863979  0.3550893654236517  1.0000
  H   H818      1.0  0.6539359996461147  0.821842976112599  0.33961128496217236  1.0000
  H   H819      1.0  0.6148805572906567  0.8475904478963168  0.41428428722042226  1.0000
  H   H820      1.0  0.6667429609742019  0.8759567613238864  0.4294889832594081  1.0000
  H   H821      1.0  0.603841385645279  0.8804710675199884  0.2852488953254201  1.0000
  H   H822      1.0  0.6055749528490528  0.8317161943808691  0.3109326423860024  1.0000
  H   H823      1.0  0.5783583672217031  0.8731197828984542  0.38364262115942993  1.0000
  H   H824      1.0  0.5743229750535231  0.9206892709600539  0.35822403643344664  1.0000
  H   H825      1.0  0.5978175961860956  0.7778273957765566  0.41081045508497743  1.0000
  H   H826      1.0  0.5606375737948622  0.7592378064230295  0.45004214747379484  1.0000
  H   H827      1.0  0.997024541240992  0.8059875970311491  0.41136750153983276  1.0000
  H   H828      1.0  0.533126165359377  0.8188151835065578  0.3716630390970791  1.0000
  H   H829      1.0  0.5469340434072063  0.7869565854743535  0.32564401315131547  1.0000
  H   H830      1.0  0.5353636363171791  0.7329086221430315  0.3024865025963319  1.0000
  H   H831      1.0  0.614592815282643  0.7141940125833076  0.3429823409989355  1.0000
  H   H832      1.0  0.6255958162801306  0.7639011922243457  0.36548414004432916  1.0000
  C   C1077     1.0  0.7467220999939382  0.8282261446787933  0.9917831857134668  1.0000
  C   C1078     1.0  0.7483139852233799  0.8282010514157367  0.01961906428044613  1.0000
  C   C1079     1.0  0.7391830729680886  0.8516927499238544  0.0345921737421235  1.0000
  C   C1080     1.0  0.7280990734001925  0.8754236472687003  0.021316925430669542  1.0000
  C   C1081     1.0  0.7229634184606579  0.8715585097705352  0.9934748802977693  1.0000
  C   C1082     1.0  0.7329674864188959  0.8488133384623665  0.978753231922588  1.0000
  H   H833      1.0  0.7593401471509551  0.8115269514625584  0.029806231181786158  1.0000
  H   H834      1.0  0.7419116480853083  0.8531959349627032  0.057041762529386836  1.0000
  H   H835      1.0  0.7122486937234127  0.8878966747860696  0.9816083519439684  1.0000
  H   H836      1.0  0.7325320465439187  0.8488915364310843  0.956405597025217  1.0000
  C   C1083     1.0  0.7441142258350402  0.9496397768666546  0.9998552205039356  1.0000
  C   C1084     1.0  0.7204432074723238  0.9376980396063326  0.01987806004912418  1.0000
  C   C1085     1.0  0.6987479242207878  0.9561502613667557  0.024946977236110834  1.0000
  C   C1086     1.0  0.6988069936822913  0.9831964578163694  0.00879057452333143  1.0000
  C   C1087     1.0  0.7210753641763618  0.9930648177413453  0.9877235298155357  1.0000
  C   C1088     1.0  0.7447065465944472  0.9775467121025038  0.9848951315798125  1.0000
  C   C1089     1.0  0.7178795335342846  0.9039864419432361  0.03728244090121835  1.0000
  C   C1090     1.0  0.7426542206473272  0.9207966674483034  0.06112074033387019  1.0000
  C   C1091     1.0  0.7321983398950949  0.9360109149247177  0.08332798308044184  1.0000
  C   C1092     1.0  0.7535751101214142  0.9562074022951973  0.101190469031339  1.0000
  C   C1093     1.0  0.7859761562626791  0.9630020002098978  0.0963560869015444  1.0000
  C   C1094     1.0  0.7971504710486684  0.9479422906870418  0.0752255265647633  1.0000
  C   C1095     1.0  0.7760090962207918  0.9281469707422683  0.0569951021805853  1.0000
  C   C1096     1.0  0.6571274680691371  0.8813784554869122  0.028285144921295524  1.0000
  C   C1097     1.0  0.6262680530427744  0.8673047470990406  0.035793420783516404  1.0000
  C   C1098     1.0  0.6180686013506664  0.8520537823782386  0.06135095879491743  1.0000
  C   C1099     1.0  0.643143184840988  0.8515850955732996  0.07902104788908225  1.0000
  C   C1100     1.0  0.6747651343486275  0.8666604547376243  0.07144912159479919  1.0000
  C   C1101     1.0  0.6824277161634396  0.8834995603981637  0.04621121725029856  1.0000
  C   C1102     1.0  0.5807045958581006  0.8385425110797738  0.07033215095432536  1.0000
  C   C1103     1.0  0.568193314769763  0.9285953396048565  0.10900741354487947  1.0000
  C   C1104     1.0  0.5677016545226302  0.9254766380330561  0.08058879449837446  1.0000
  C   C1105     1.0  0.5728752977108781  0.8977443328089686  0.06878187628180907  1.0000
  C   C1106     1.0  0.5774559240201447  0.8717784055633362  0.08453416337457147  1.0000
  C   C1107     1.0  0.5801229716881414  0.8763281369964352  0.1129081775942486  1.0000
  C   C1108     1.0  0.5748969253969032  0.9042329889846922  0.12498313587617613  1.0000
  C   C1109     1.0  0.5692326309974933  0.8062030611902198  0.089216436878317  1.0000
  C   C1110     1.0  0.584134782567227  0.7808247551508606  0.08709287712735361  1.0000
  C   C1111     1.0  0.5714068982529628  0.7501456872441207  0.10035942149739796  1.0000
  C   C1112     1.0  0.5441229908568945  0.7442806901556298  0.11628848347989305  1.0000
  C   C1113     1.0  0.5291572303789956  0.7686570364234507  0.11816126955007285  1.0000
  C   C1114     1.0  0.5409061974522974  0.798869536794719  0.1047105504111907  1.0000
  C   C1115     1.0  0.5258944567689878  0.8310313158607483  0.0465933387851975  1.0000
  C   C1116     1.0  0.5073186076898395  0.8251759052997487  0.023783551799032576  1.0000
  C   C1117     1.0  0.5166316637179031  0.81133200707047  0.0009261474521999878  1.0000
  C   C1118     1.0  0.5443557384478784  0.801795314366271  0.0011810321769307741  1.0000
  C   C1119     1.0  0.5631291111970645  0.8077892132787222  0.02448037374809542  1.0000
  C   C1120     1.0  0.5554698020037682  0.825544663585055  0.04647144633216089  1.0000
  H   H837      1.0  0.7629306488427452  0.9378138879444051  0.9961573364733644  1.0000
  H   H838      1.0  0.6811473402355939  0.9485105721209965  0.04112010042599683  1.0000
  H   H839      1.0  0.6829018176694213  0.9977616879734816  0.013627217727296912  1.0000
  H   H840      1.0  0.763738837570039  0.9861693922377864  0.9696472695793804  1.0000
  H   H841      1.0  0.7061683643855328  0.9307109384449523  0.08582852556137008  1.0000
  H   H842      1.0  0.745954434592872  0.969648267381056  0.11796969490212997  1.0000
  H   H843      1.0  0.8225329757218759  0.9515575342004957  0.07129886293852639  1.0000
  H   H844      1.0  0.7839507155430856  0.9172879115672523  0.039740845181687044  1.0000
  H   H845      1.0  0.663348766619993  0.8925803806591831  0.00770114787730436  1.0000
  H   H846      1.0  0.6081040017255618  0.868742810920504  0.021111373233305697  1.0000
  H   H847      1.0  0.6372154384045523  0.838122112768646  0.09830533838914346  1.0000
  H   H848      1.0  0.6945183227873899  0.8666309116840948  0.08519912473304272  1.0000
  H   H849      1.0  0.5632712362446871  0.9449708255157624  0.06731197251846194  1.0000
  H   H850      1.0  0.573215179543494  0.8969279933749217  0.04624081676671892  1.0000
  H   H851      1.0  0.5850040633554394  0.8571359356871918  0.12612374501934676  1.0000
  H   H852      1.0  0.5759911082211524  0.9067794741406909  0.14751679551216118  1.0000
  H   H853      1.0  0.6057567016789757  0.7835128801213366  0.07458708143975196  1.0000
  H   H854      1.0  0.582166343562296  0.7300429397859445  0.09755260624239794  1.0000
  H   H855      1.0  0.507042677140601  0.7652100908333326  0.12979881275601063  1.0000
  H   H856      1.0  0.5293675865330576  0.8177152106439467  0.1080663955853489  1.0000
  H   H857      1.0  0.5188361161773967  0.8430606810067095  0.06427617211559887  1.0000
  H   H858      1.0  0.9840424402402359  0.8296513779938856  0.024675648335590772  1.0000
  H   H859      1.0  0.5527466115261647  0.789268624529969  0.9840318123508853  1.0000
  H   H860      1.0  0.5859841270078203  0.8020663895364505  0.024996309763477775  1.0000
  C   C1121     1.0  0.8839948347019242  0.9927181149010135  0.31921434041778196  1.0000
  C   C1122     1.0  0.8932284823373445  0.5198641867760165  0.3017752919934538  1.0000
  C   C1123     1.0  0.9238497626529288  0.5317066751242331  0.29278649440274346  1.0000
  C   C1124     1.0  0.9460254926746979  0.5146328748769026  0.2969962034047501  1.0000
  C   C1125     1.0  0.9355629316389551  0.9851643088420893  0.31214745587242126  1.0000
  C   C1126     1.0  0.9054745310693268  0.9752808346425713  0.3241702038962185  1.0000
  H   H861      1.0  0.8781472130433352  0.5355756024433483  0.29681120642712283  1.0000
  H   H862      1.0  0.9297699089742322  0.555450190464293  0.2824410523094333  1.0000
  H   H863      1.0  0.9506466575049984  0.9693548314917374  0.3168854340216523  1.0000
  H   H864      1.0  0.8998044667039841  0.9534451950639212  0.3375187635930109  1.0000
  C   C1127     1.0  0.5112320466198776  0.9943867972537731  0.3090703394778881  1.0000
  C   C1128     1.0  0.999859229511037  0.5009428455876651  0.28332287123612315  1.0000
  C   C1129     1.0  0.5064838295629861  0.983270146527518  0.2607861283171776  1.0000
  C   C1130     1.0  0.523147754817317  0.9604502244947152  0.26397629842026077  1.0000
  C   C1131     1.0  0.5320911635110203  0.9531182128557352  0.28949560372295213  1.0000
  C   C1132     1.0  0.5269260398113181  0.9703733615269344  0.31199123620242497  1.0000
  C   C1133     1.0  0.9817985126851153  0.5292318957475107  0.28207928044207337  1.0000
  C   C1134     1.0  0.5050302262115912  0.562262038307804  0.29726958782724366  1.0000
  C   C1135     1.0  0.5377867936992254  0.572835656587414  0.2914832934714582  1.0000
  C   C1136     1.0  0.5576428508442266  0.6025978139289684  0.3014854633951711  1.0000
  C   C1137     1.0  0.5451489565006626  0.622085111139709  0.31866346052884753  1.0000
  C   C1138     1.0  0.5129413559332892  0.6108548894553382  0.3254281833440837  1.0000
  C   C1139     1.0  0.9929644058623884  0.5817252295589144  0.3145770828452591  1.0000
  C   C1140     1.0  0.9523798728799471  0.514924638478628  0.23554842952487437  1.0000
  C   C1141     1.0  0.9474509520692924  0.5199004296357088  0.20870331254918773  1.0000
  C   C1142     1.0  0.9653357631712414  0.5473738994777759  0.19423901552510564  1.0000
  C   C1143     1.0  0.9890332634207064  0.5705015648736755  0.20909797276812583  1.0000
  C   C1144     1.0  0.9939145414136566  0.5668592677613282  0.23611164254565065  1.0000
  C   C1145     1.0  0.9758503407694937  0.5381072228777964  0.2503522987790011  1.0000
  C   C1146     1.0  0.9616415324458918  0.5512716064477055  0.16174820189663028  1.0000
  C   C1147     1.0  0.5253077506079635  0.9975134604655186  0.1256665969324101  1.0000
  C   C1148     1.0  0.9961194638906281  0.9803987491482289  0.13673969380438744  1.0000
  C   C1149     1.0  0.9769717119678188  0.99708618862471  0.1479285165634805  1.0000
  C   C1150     1.0  0.9863737815351274  0.5317483516553712  0.1503484825830422  1.0000
  C   C1151     1.0  0.5179204260217641  0.5477048974328338  0.14395108154449476  1.0000
  C   C1152     1.0  0.5367706002739716  0.5312987259076797  0.130294810208249  1.0000
  C   C1153     1.0  0.9694916104908922  0.5884509664227544  0.15028537805845157  1.0000
  C   C1154     1.0  0.9654366789783904  0.6140835531523965  0.16667035481469916  1.0000
  C   C1155     1.0  0.9741789364801368  0.6461788117907417  0.15677157764626007  1.0000
  C   C1156     1.0  0.9871949209583544  0.6537957049359742  0.13126193329684477  1.0000
  C   C1157     1.0  0.9902202330519009  0.6280700607088784  0.11460213325272205  1.0000
  C   C1158     1.0  0.9801950780224117  0.5959792976753108  0.12388281496368876  1.0000
  C   C1159     1.0  0.9184927953945452  0.5193607759101666  0.12537306839457488  1.0000
  C   C1160     1.0  0.8882402013103329  0.5000308702779973  0.11920280253411424  1.0000
  C   C1161     1.0  0.8640117553241975  0.9984742175093605  0.13746200422592314  1.0000
  C   C1162     1.0  0.8690700412533849  0.5193287733742605  0.16037881315779395  1.0000
  C   C1163     1.0  0.9001877442555974  0.5380808326025218  0.16665678836967315  1.0000
  C   C1164     1.0  0.9256240581152924  0.5353950480254845  0.15066379965379798  1.0000
  H   H865      1.0  0.507081432716078  0.506593078005689  0.3272349871589098  1.0000
  H   H866      1.0  0.9988407460055985  0.9867965691747265  0.23967591764793553  1.0000
  H   H867      1.0  0.527841242058799  0.9465899768350214  0.24634197540843722  1.0000
  H   H868      1.0  0.5338584107741291  0.9648281278787878  0.3322669049503708  1.0000
  H   H869      1.0  0.5477788950404747  0.5586131695514186  0.27792095948940765  1.0000
  H   H870      1.0  0.5822254309184154  0.6110735508486073  0.2946857967063831  1.0000
  H   H871      1.0  0.502751881640088  0.6268814875120742  0.3378599802406344  1.0000
  H   H872      1.0  0.9678305025488398  0.5745172702167916  0.3206490947553799  1.0000
  H   H873      1.0  0.9391159421668572  0.992444703813932  0.2459144268379209  1.0000
  H   H874      1.0  0.9301094585465165  0.9998759412621601  0.19781521265483762  1.0000
  H   H875      1.0  0.5046915984091769  0.5920390393794146  0.19837328687067984  1.0000
  H   H876      1.0  0.5128278061314993  0.5858645546587169  0.24505727417491469  1.0000
  H   H877      1.0  0.9869463937721425  0.9531150733314236  0.13440050979838963  1.0000
  H   H878      1.0  0.9528387101602627  0.9829711035906352  0.1541995030006493  1.0000
  H   H879      1.0  0.5281822641787153  0.5736609320716639  0.14890160066579977  1.0000
  H   H880      1.0  0.5612345394187889  0.5436597914091579  0.12388384272467558  1.0000
  H   H881      1.0  0.9550713764286713  0.6085891224860401  0.18722290237249378  1.0000
  H   H882      1.0  0.9712781999366401  0.6661038868662034  0.1698506584123088  1.0000
  H   H883      1.0  0.9997564187485343  0.6333319350942623  0.09403458038451987  1.0000
  H   H884      1.0  0.9810039148164232  0.5759451219095761  0.11009704574310394  1.0000
  H   H885      1.0  0.9381332804125483  0.5202892309727669  0.11117619477926287  1.0000
  H   H886      1.0  0.8834423014379831  0.9858121547509541  0.10074421521086263  1.0000
  H   H887      1.0  0.850932741753933  0.518492215408423  0.17539460672740256  1.0000
  H   H888      1.0  0.9046498972675929  0.5527054190779376  0.18544179258233814  1.0000
  C   C1165     1.0  0.998290334144135  0.6893402868056919  0.119511336382357  1.0000
  C   C1166     1.0  0.5306781482866416  0.7105367061893672  0.13129297167864667  1.0000
  H   H889      1.0  0.5008732245340219  0.6882238258831505  0.0965848664972101  1.0000
  H   H890      1.0  0.9803618266927835  0.7018651560077561  0.12379627748859867  1.0000
  H   H891      1.0  0.527110950099521  0.7145881441892046  0.1526706057566588  1.0000
  H   H892      1.0  0.5477576918283464  0.6955407029609915  0.12998278197265106  1.0000
  C   C1167     1.0  0.8113973441594965  0.9892150486123629  0.1131402460250721  1.0000
  C   C1168     1.0  0.8320628462533064  0.9743214880621209  0.13234396006376678  1.0000
  H   H893      1.0  0.8270683093998903  0.5070804234156049  0.09805230363418888  1.0000
  H   H894      1.0  0.8001235288012373  0.5054435416798057  0.12510461722481803  1.0000
  H   H895      1.0  0.8359788842119221  0.9516401122969531  0.1236318357307078  1.0000
  H   H896      1.0  0.819335475882816  0.9645722202040216  0.15176905381902203  1.0000
  C   C1169     1.0  0.560975854564815  0.9578152429255807  0.12390645346638558  1.0000
  C   C1170     1.0  0.5436443342218711  0.9788000706826807  0.10800555213492928  1.0000
  H   H897      1.0  0.5479901059246679  0.9485546338825067  0.14310852308750135  1.0000
  H   H898      1.0  0.5838992642352201  0.9742500418609931  0.13193408898222375  1.0000
  H   H899      1.0  0.5618828598454066  0.9966430398741646  0.09491578265461764  1.0000
  H   H900      1.0  0.5259193771208687  0.963389461766333  0.09351658884716359  1.0000
  C   C1171     1.0  0.8511528398129293  0.9821372608567186  0.3328527287128571  1.0000
  C   C1172     1.0  0.8289195576454376  0.9478003671722222  0.3240982606271412  1.0000
  H   H901      1.0  0.8541029104529272  0.9808233836536239  0.3554655259448271  1.0000
  H   H902      1.0  0.839159654494818  0.5017118340496024  0.32981672275779667  1.0000
  H   H903      1.0  0.8217604816299197  0.950451664066206  0.3029901054798727  1.0000
  H   H904      1.0  0.8426983539599158  0.9294261210736805  0.3225052310975733  1.0000
  C   C1173     1.0  0.5651704712158946  0.6844022040465141  0.309370445686039  1.0000
  C   C1174     1.0  0.5663754636303835  0.6554591590342052  0.3291486781163649  1.0000
  H   H905      1.0  0.582502517747808  0.6865861060006543  0.29206706171197083  1.0000
  H   H906      1.0  0.5409180650626664  0.6784128540292627  0.2992243892241715  1.0000
  H   H907      1.0  0.5570244552254532  0.6592135923877069  0.34969567576483074  1.0000
  H   H908      1.0  0.5910760746727038  0.6555036976706415  0.33143852959499553  1.0000
  C   C1175     1.0  0.5439817641982416  0.9220776380833199  0.2947947393709858  1.0000
  C   C1176     1.0  0.5797039861010331  0.9312978545456279  0.30279071984843003  1.0000
  H   H909      1.0  0.5303299229887574  0.9060130871252438  0.3116705747745377  1.0000
  H   H910      1.0  0.5390272910608367  0.9048222472988856  0.27654375976707146  1.0000
  H   H911      1.0  0.593709765531006  0.9357125347158086  0.2836126998344058  1.0000
  H   H912      1.0  0.5876287669268372  0.9561226269730566  0.313351991748972  1.0000
  C   C1177     1.0  0.7387931451757893  0.5418486126405809  0.45888294748240344  1.0000
  C   C1178     1.0  0.7134797687266797  0.5079514440670563  0.4665664886198549  1.0000
  H   H913      1.0  0.7325340156992418  0.5516046985322053  0.43889299628879297  1.0000
  H   H914      1.0  0.7623012116882109  0.5387576134894062  0.4546136283431614  1.0000
  H   H915      1.0  0.688803316346591  0.5102697090185364  0.4649076823871306  1.0000
  H   H916      1.0  0.7162935804728804  0.5020772330174678  0.4890641766213013  1.0000
  C   C1179     1.0  0.9794911469007014  0.7445078289870348  0.46008953888092774  1.0000
  C   C1180     1.0  0.5065122789000834  0.7773007467495285  0.45984698728803874  1.0000
  H   H917      1.0  0.9885491700829275  0.7235363579502935  0.4555817791927439  1.0000
  H   H918      1.0  0.9628187074280253  0.7445911499946721  0.44286837578580507  1.0000
  H   H919      1.0  0.997976941278157  0.7991185870062804  0.46326326480822183  1.0000
  H   H920      1.0  0.5230314271474511  0.7785962465341164  0.4771359826082914  1.0000
  C   C1181     1.0  0.741012034821577  0.7788657154129348  0.4686713431208582  1.0000
  C   C1182     1.0  0.7704177725224383  0.7850259256623657  0.48700248808174434  1.0000
  H   H921      1.0  0.7382272482566242  0.7576552360075403  0.4537503091142342  1.0000
  H   H922      1.0  0.7188003470213763  0.7711330865096471  0.48117713880845986  1.0000
  H   H923      1.0  0.7729796448742382  0.804833233215579  0.5026100664275628  1.0000
  H   H924      1.0  0.7920555746752067  0.7938428761996477  0.4743630834658564  1.0000
  C   C1183     1.0  0.9149531843120268  0.5540175481858262  0.6126853236377462  1.0000
  C   C1184     1.0  0.9373209818798415  0.5899528124091098  0.6077171270274679  1.0000
  H   H925      1.0  0.9054565800268383  0.5438332934730157  0.5928248703284748  1.0000
  H   H926      1.0  0.8959579120547072  0.5537882687508691  0.6278468537152856  1.0000
  H   H927      1.0  0.9565823952944373  0.589826692101101  0.5929235353832094  1.0000
  H   H928      1.0  0.9502110835485015  0.5996112642067186  0.6264573208611077  1.0000
  C   C1185     1.0  0.6380334642452887  0.5606943231132732  0.6074704643906316  1.0000
  C   C1186     1.0  0.6603499754443551  0.5950032235385985  0.617221860633561  1.0000
  H   H929      1.0  0.6513865086058012  0.54172730641347  0.6065886454639418  1.0000
  H   H930      1.0  0.6321536616997661  0.5644687025472821  0.5858710394916642  1.0000
  H   H931      1.0  0.6687830136460476  0.5914533455209836  0.6379333000399177  1.0000
  H   H932      1.0  0.6460053049801553  0.6122632896834282  0.6194870458485079  1.0000
  C   C1187     1.0  0.9535965223763034  0.8301422968970271  0.6276495236058166  1.0000
  C   C1188     1.0  0.9585487171633652  0.8626473301612646  0.6116575626509282  1.0000
  H   H933      1.0  0.9762447405760625  0.8299940254100708  0.638066908968204  1.0000
  H   H934      1.0  0.9359245935818995  0.8292300316736346  0.6448974084865965  1.0000
  H   H935      1.0  0.9356553997230902  0.8643272397737856  0.6053676654116019  1.0000
  H   H936      1.0  0.9720036685981019  0.8612705268107494  0.5925103754665085  1.0000
  C   C1189     1.0  0.9699817998855417  0.7737204563085195  0.9776905270622183  1.0000
  C   C1190     1.0  0.9972555011459483  0.8071457233726291  0.9749690159691241  1.0000
  H   H937      1.0  0.9531860956598961  0.7731169136614411  0.9951007981789154  1.0000
  H   H938      1.0  0.9797832812349387  0.7524006621575323  0.9818961250202776  1.0000
  H   H939      1.0  0.5119867051233279  0.8086133421292645  0.9564384853767952  1.0000
  H   H940      1.0  0.9866528844811162  0.8282024620170384  0.9725784439137853  1.0000
  C   C1191     1.0  0.7413123892341504  0.5548612957449128  0.9789752282957408  1.0000
  C   C1192     1.0  0.7197497329542738  0.5210290352501877  0.968401623263357  1.0000
  H   H941      1.0  0.76596889412345  0.553178908159723  0.9825395033980255  1.0000
  H   H942      1.0  0.7323813990840032  0.5599176007725754  0.999520170422233  1.0000
  H   H943      1.0  0.6947109063475821  0.5227728112661493  0.9673635846666708  1.0000
  H   H944      1.0  0.7262811767995697  0.5154219903414887  0.9470611941330676  1.0000
  C   C1193     1.0  0.7296067580984646  0.7729641496575003  0.9656821676922365  1.0000
  C   C1194     1.0  0.757340989744012  0.8030424996828986  0.9747531861618922  1.0000
  H   H945      1.0  0.7111180207069976  0.7824718964751279  0.9553387811209  1.0000
  H   H946      1.0  0.7163427539239299  0.7598708677888394  0.9835631533408964  1.0000
  H   H947      1.0  0.775492820701251  0.7941266406294172  0.9862312208626759  1.0000
  H   H948      1.0  0.7704374782074144  0.8167755641140142  0.9565823719149497  1.0000
  C   C1195     1.0  0.9580382095342105  0.6261650604452345  0.8049835153153447  1.0000
  C   C1196     1.0  0.9269132377059877  0.6173207689486173  0.8234523802484645  1.0000
  H   H949      1.0  0.9776884872535324  0.6457116171239499  0.8149445747995849  1.0000
  H   H950      1.0  0.9533118534237585  0.6371775649580004  0.784695513435557  1.0000
  H   H951      1.0  0.9291026932833505  0.6000720709325326  0.8398328348563701  1.0000
  H   H952      1.0  0.9061481316868738  0.6032590364520221  0.8111254149725692  1.0000
  C   C1197     1.0  0.6527653834180471  0.5720803818358059  0.8169877636413793  1.0000
  C   C1198     1.0  0.6786970132726539  0.6043753455166739  0.8083319606103978  1.0000
  H   H953      1.0  0.646493171493959  0.5737746168813949  0.838759852386132  1.0000
  H   H954      1.0  0.6648946721909692  0.5517228401201414  0.8168418215812511  1.0000
  H   H955      1.0  0.6670997138311737  0.6231588959236872  0.8012465763672745  1.0000
  H   H956      1.0  0.6926919831676173  0.5997414589932234  0.7900295929571426  1.0000
  C   C1199     1.0  0.9386138795420145  0.89692633576498  0.8320917391036569  1.0000
  C   C1200     1.0  0.9393402366161875  0.865299210927237  0.8166753243013866  1.0000
  H   H957      1.0  0.9487114071986542  0.8949840993912204  0.8525277385655463  1.0000
  H   H958      1.0  0.9138271962107796  0.8978829966629205  0.8359725645898817  1.0000
  H   H959      1.0  0.9637603617259007  0.8691106687933516  0.8092487234106396  1.0000
  H   H960      1.0  0.9256131651352995  0.8639197815103297  0.7975589699465714  1.0000
