data_image0
_chemical_formula_sum              "C1200 H960"
_cell_length_a       42.83833741020195
_cell_length_b       42.847706772861116
_cell_length_c       42.34942700349722
_cell_angle_alpha    90.53710000029432
_cell_angle_beta     89.9479000000074
_cell_angle_gamma    89.84900000031976

_space_group_name_H-M_alt    "P 1"
_space_group_IT_number       1

loop_
  _space_group_symop_operation_xyz
  'x, y, z'

loop_
  _atom_site_type_symbol
  _atom_site_label
  _atom_site_symmetry_multiplicity
  _atom_site_fract_x
  _atom_site_fract_y
  _atom_site_fract_z
  _atom_site_occupancy
  C   C1        1.0  0.21735842465643915  0.935980664147892  0.5381326942139888  1.0000
  C   C2        1.0  0.1864018350745021  0.927344689333207  0.540574394036783  1.0000
  C   C3        1.0  0.17656429408011973  0.8978505783838168  0.5326400503186125  1.0000
  C   C4        1.0  0.19740428379919522  0.8744043413843808  0.5255534534441394  1.0000
  C   C5        1.0  0.22884597716459146  0.882594668417326  0.5241318835279671  1.0000
  C   C6        1.0  0.2383660796547335  0.9126201811587085  0.5307296681555174  1.0000
  H   H1        1.0  0.16909459021158124  0.9439197422073905  0.5473752600809292  1.0000
  H   H2        1.0  0.15200254774738678  0.8933524802709639  0.536335659818296  1.0000
  H   H3        1.0  0.24652613995775616  0.8647552497127151  0.5214233441694132  1.0000
  H   H4        1.0  0.26308703753678003  0.9177128440050877  0.5312539015797535  1.0000
  C   C7        1.0  0.21237575943937012  0.8271300491236543  0.4721949919394428  1.0000
  C   C8        1.0  0.20229555711606126  0.8165891000633487  0.501523726754823  1.0000
  C   C9        1.0  0.20649852383233103  0.7851791237915375  0.5074650388961673  1.0000
  C   C10       1.0  0.22152670490405837  0.7652760401293532  0.48656654428134327  1.0000
  C   C11       1.0  0.2329892083463478  0.7772214257650142  0.4586900777358067  1.0000
  C   C12       1.0  0.22750781927959113  0.8078227550892114  0.4513673396792452  1.0000
  C   C13       1.0  0.1854953451032086  0.8389242430032495  0.5262193715776287  1.0000
  C   C14       1.0  0.14999270610557905  0.8342264854746126  0.515170325667712  1.0000
  C   C15       1.0  0.1312479931242705  0.8104678468196939  0.5275110638436523  1.0000
  C   C16       1.0  0.10201032508459323  0.8036752035811587  0.515049893664847  1.0000
  C   C17       1.0  0.09127748994149872  0.8211972975641196  0.4898134855350589  1.0000
  C   C18       1.0  0.1093141429039923  0.8449134029989898  0.4781717252581004  1.0000
  C   C19       1.0  0.13820293185861265  0.8503700369280422  0.49001656695165496  1.0000
  C   C20       1.0  0.22082158121087186  0.8174378525343934  0.573716808942891  1.0000
  C   C21       1.0  0.22966961075037098  0.8207446545190613  0.6046631108555769  1.0000
  C   C22       1.0  0.2131345862896838  0.8402246446871691  0.6244824402682569  1.0000
  C   C23       1.0  0.18402539578604749  0.850120216734094  0.6146636899170209  1.0000
  C   C24       1.0  0.17384264836085225  0.8439819759823626  0.5846737597917931  1.0000
  C   C25       1.0  0.19358751412792768  0.8312744138835038  0.5625426082064675  1.0000
  C   C26       1.0  0.22419693905573265  0.8511186266242744  0.658682767670121  1.0000
  C   C27       1.0  0.16087327873069712  0.7981977352393766  0.717533873070194  1.0000
  C   C28       1.0  0.18797924593089602  0.7848798027077938  0.706350226686487  1.0000
  C   C29       1.0  0.20669956355097968  0.8015543604902897  0.6868685791641933  1.0000
  C   C30       1.0  0.2008770218892066  0.8327300024489303  0.6805730552497165  1.0000
  C   C31       1.0  0.1731019231304491  0.8450322907292555  0.6909561830261437  1.0000
  C   C32       1.0  0.15319068195772648  0.8282999167522653  0.7092358719316074  1.0000
  C   C33       1.0  0.2226015253498926  0.8881287859187421  0.6619438773947619  1.0000
  C   C34       1.0  0.231180346039568  0.9059580077772845  0.6366059285566757  1.0000
  C   C35       1.0  0.23800866795065312  0.9370588405021899  0.6411256707818479  1.0000
  C   C36       1.0  0.23826475159900076  0.9501443119358213  0.6710447585524492  1.0000
  C   C37       1.0  0.22482619512177596  0.934705408309549  0.6954239741912563  1.0000
  C   C38       1.0  0.21837054629824004  0.9033125746986975  0.6913788757420819  1.0000
  C   C39       1.0  0.2671295335921093  0.8416770629491408  0.7003664091323667  1.0000
  C   C40       1.0  0.2974925716986542  0.8397762378524315  0.7110801345637179  1.0000
  C   C41       1.0  0.32141931684201874  0.8401247013499326  0.6897518629974928  1.0000
  C   C42       1.0  0.3148896576586331  0.843993066395671  0.6581467271867804  1.0000
  C   C43       1.0  0.2849696637272057  0.848468354121568  0.648212267656321  1.0000
  C   C44       1.0  0.2600213092839537  0.8455554919597439  0.6683362191938951  1.0000
  H   H5        1.0  0.20937037112877957  0.8513992661613536  0.4658404327294437  1.0000
  H   H6        1.0  0.197540571694516  0.7745072806276821  0.528210041742634  1.0000
  H   H7        1.0  0.22574673193179245  0.7409102427355225  0.4915656531061549  1.0000
  H   H8        1.0  0.2356402424075757  0.8176197795159097  0.42940384833320244  1.0000
  H   H9        1.0  0.1408527256145859  0.7941569285853439  0.5446785277814795  1.0000
  H   H10       1.0  0.08680280242604693  0.7863564708439713  0.5257140294479595  1.0000
  H   H11       1.0  0.099744966263186  0.8598681310675288  0.4602249954193814  1.0000
  H   H12       1.0  0.1526366537356998  0.8674994414935494  0.47856608103218806  1.0000
  H   H13       1.0  0.237980609420061  0.8066430294305739  0.5587785177639784  1.0000
  H   H14       1.0  0.2511249401933401  0.8103504740067567  0.6133129623554753  1.0000
  H   H15       1.0  0.16930410927878028  0.8641329744792109  0.6298050625125297  1.0000
  H   H16       1.0  0.15239160110449188  0.8555651498393014  0.5779012306894976  1.0000
  H   H17       1.0  0.19388417580591294  0.7611557435038923  0.7118452319936842  1.0000
  H   H18       1.0  0.2270695452672583  0.7911197113121223  0.6767971577481228  1.0000
  H   H19       1.0  0.16608225150710285  0.8684048943281624  0.6860680605569137  1.0000
  H   H20       1.0  0.13103371545920767  0.8383024278736589  0.7177558457813571  1.0000
  H   H21       1.0  0.23575565086901273  0.8962513946351925  0.6131736390580431  1.0000
  H   H22       1.0  0.24772212048843595  0.9498493159692476  0.6215849879640322  1.0000
  H   H23       1.0  0.2231544688645571  0.9449544310266879  0.7187074947451734  1.0000
  H   H24       1.0  0.21371286538015305  0.8896513989279455  0.7124119708306964  1.0000
  H   H25       1.0  0.24944917137591513  0.8409536077109865  0.7179990711989082  1.0000
  H   H26       1.0  0.3033732050652983  0.8381852730713996  0.7360898471587011  1.0000
  H   H27       1.0  0.3351143770286409  0.8473332089328027  0.6433312294225536  1.0000
  H   H28       1.0  0.2807799910809346  0.8530319954166093  0.6238873644893942  1.0000
  C   C45       1.0  0.36408925035020906  0.058265309989457746  0.8320741534421762  1.0000
  C   C46       1.0  0.3642648925285175  0.048526399808326307  0.8626001240507447  1.0000
  C   C47       1.0  0.3371306108018738  0.048577507513420486  0.8803036284719126  1.0000
  C   C48       1.0  0.3091589729115745  0.059467975715863604  0.8680644310042703  1.0000
  C   C49       1.0  0.3096128680933433  0.06966849961160769  0.837007142736003  1.0000
  C   C50       1.0  0.336232631149912  0.06830869660430255  0.8190155460726873  1.0000
  H   H29       1.0  0.3858451469934084  0.0386615896250149  0.8717340649739242  1.0000
  H   H30       1.0  0.3396746086318189  0.03884441233124569  0.9041538878628417  1.0000
  H   H31       1.0  0.28863448118169366  0.07871314494391868  0.8255259584628647  1.0000
  H   H32       1.0  0.33471075954928675  0.07563787636657007  0.7947827379667748  1.0000
  C   C51       1.0  0.2573126209606113  0.11037178889248028  0.8723055266345782  1.0000
  C   C52       1.0  0.2511981482550993  0.0794127547818473  0.8808703673089248  1.0000
  C   C53       1.0  0.22074672891534808  0.07076104636720218  0.8861977123768393  1.0000
  C   C54       1.0  0.1971845208719807  0.0920525063794678  0.8846793245760107  1.0000
  C   C55       1.0  0.202870811664775  0.12217878477357831  0.8762868669645888  1.0000
  C   C56       1.0  0.23307694100459364  0.13099647113339946  0.869377375976682  1.0000
  C   C57       1.0  0.27803534866835394  0.05531232729049588  0.8876334507639368  1.0000
  C   C58       1.0  0.2832489247914653  0.06198399730087218  0.9241361546911628  1.0000
  C   C59       1.0  0.26522581482035396  0.04633130085611965  0.9461468742736233  1.0000
  C   C60       1.0  0.2633550546401641  0.056399282185995256  0.9773954368993824  1.0000
  C   C61       1.0  0.2814363059300745  0.0816591995924227  0.9871811274851259  1.0000
  C   C62       1.0  0.30069159841077225  0.09621599240205472  0.9661858149856455  1.0000
  C   C63       1.0  0.3002689063345074  0.08752588239122078  0.9347318095314696  1.0000
  C   C64       1.0  0.25689765565898437  0.014394239985137558  0.8487197453675881  1.0000
  C   C65       1.0  0.2610450700476638  0.9873123726508406  0.832874672049456  1.0000
  C   C66       1.0  0.28088264674191527  0.9647561198836352  0.8442566770261172  1.0000
  C   C67       1.0  0.2898725258078887  0.9682524456008348  0.8752549299988625  1.0000
  C   C68       1.0  0.2848778737055814  0.9951103002323545  0.8916077068584846  1.0000
  C   C69       1.0  0.27041732763537435  0.019889093466814556  0.8777840020590292  1.0000
  C   C70       1.0  0.29458294292388254  0.9379612822887783  0.821608376252018  1.0000
  C   C71       1.0  0.23678373102484981  0.8629145889053704  0.860472492000128  1.0000
  C   C72       1.0  0.2277515820773396  0.8787798179088133  0.8337436715995413  1.0000
  C   C73       1.0  0.24649140788464094  0.9021245699802543  0.8218209033158976  1.0000
  C   C74       1.0  0.2748950985206749  0.9093713831359598  0.8351888556339223  1.0000
  C   C75       1.0  0.2829348608037679  0.8936865189154509  0.8627441701718186  1.0000
  C   C76       1.0  0.2634798778982134  0.8727218848402544  0.8753777234135484  1.0000
  C   C77       1.0  0.33073428912006786  0.9314968757816883  0.8259297598842359  1.0000
  C   C78       1.0  0.3525587604218599  0.9541465190954732  0.83419470125733  1.0000
  C   C79       1.0  0.3829771926182052  0.9470152554598273  0.837576242984836  1.0000
  C   C80       1.0  0.39378625634891695  0.9174794972163813  0.832199308268683  1.0000
  C   C81       1.0  0.3731023379420539  0.8950045245853085  0.8218799386114196  1.0000
  C   C82       1.0  0.3424524440942424  0.9022257440092316  0.8186353587695249  1.0000
  C   C83       1.0  0.2906017522442891  0.9217039361898031  0.7614514101149962  1.0000
  C   C84       1.0  0.2925673589640615  0.9280706128523767  0.7297116738304932  1.0000
  C   C85       1.0  0.29659863449405116  0.9587767285060348  0.7203486759606879  1.0000
  C   C86       1.0  0.3030969501336029  0.9815113645490653  0.742569561195207  1.0000
  C   C87       1.0  0.3021528024297302  0.9748221845338243  0.773759088525444  1.0000
  C   C88       1.0  0.29424775595683084  0.9450659133743098  0.7841256864191251  1.0000
  H   H33       1.0  0.2805151096692957  0.11922719169004725  0.8708508969529136  1.0000
  H   H34       1.0  0.2151640546361659  0.04673368434721539  0.893617268318057  1.0000
  H   H35       1.0  0.17314310236544786  0.0851392648889322  0.8900043082321044  1.0000
  H   H36       1.0  0.23867196891681677  0.15441320466487887  0.863509267601785  1.0000
  H   H37       1.0  0.25000908446147263  0.026697129606135794  0.9397545324744901  1.0000
  H   H38       1.0  0.24907038549785937  0.044428139762909845  0.9951390853215053  1.0000
  H   H39       1.0  0.31674225698468905  0.11498605974133283  0.9738958245808321  1.0000
  H   H40       1.0  0.31606019293982907  0.09997506906223913  0.9197155917624678  1.0000
  H   H41       1.0  0.24517120145925475  0.03259453538171973  0.8359775671820976  1.0000
  H   H42       1.0  0.25079057406548033  0.9853335560638768  0.8097375590284337  1.0000
  H   H43       1.0  0.3034895007463198  0.9509239333941701  0.8863748182634056  1.0000
  H   H44       1.0  0.29543178428911643  0.9979629402091794  0.9140930702169429  1.0000
  H   H45       1.0  0.20524045424670911  0.8749224092363618  0.8229638266372054  1.0000
  H   H46       1.0  0.23708276474272588  0.9138231576810621  0.8018150223693676  1.0000
  H   H47       1.0  0.302258667149052  0.9012944245113762  0.8767969319178998  1.0000
  H   H48       1.0  0.26968044252703033  0.8639093548283535  0.8980543611294982  1.0000
  H   H49       1.0  0.3445755991229964  0.9771657439207012  0.839023788431038  1.0000
  H   H50       1.0  0.39787726449285016  0.9658171063008759  0.844913149512323  1.0000
  H   H51       1.0  0.38199464416118883  0.8717608839825353  0.8165077267189084  1.0000
  H   H52       1.0  0.32686400475395283  0.8841489858602884  0.8114708353049626  1.0000
  H   H53       1.0  0.2859795860188073  0.8981538247148977  0.768339648396515  1.0000
  H   H54       1.0  0.29001011948614736  0.9089006060692923  0.7118617618764305  1.0000
  H   H55       1.0  0.3094677003685059  0.005032703811325812  0.7355986734999572  1.0000
  H   H56       1.0  0.3094231113761223  0.9926320400999388  0.7904023190390349  1.0000
  C   C89       1.0  0.5373614216261641  0.7577376035890476  0.7054009391344916  1.0000
  C   C90       1.0  0.5245494534003778  0.7285702732055845  0.7037668421544399  1.0000
  C   C91       1.0  0.5273965823031451  0.7087561801342639  0.7289867204014817  1.0000
  C   C92       1.0  0.5417616079296695  0.7181428149986111  0.7566742740013477  1.0000
  C   C93       1.0  0.5516573396023631  0.7485145163744059  0.7580675069756692  1.0000
  C   C94       1.0  0.5526597168248973  0.7667420241336433  0.7321392051823621  1.0000
  H   H57       1.0  0.5120177585565258  0.7192793749936605  0.6826322063575274  1.0000
  H   H58       1.0  0.5161524858113179  0.6863206280439015  0.7266985123470452  1.0000
  H   H59       1.0  0.561948102048498  0.7577458285617179  0.7793202133636259  1.0000
  H   H60       1.0  0.562470055216032  0.7897025313172146  0.733402560506535  1.0000
  C   C95       1.0  0.6000734021268906  0.7062096158036024  0.7999683983254362  1.0000
  C   C96       1.0  0.5702483428505154  0.6987098640964227  0.8104294526919527  1.0000
  C   C97       1.0  0.5668174419613259  0.6918523789233018  0.8428492755808702  1.0000
  C   C98       1.0  0.592168416117335  0.6921640075228611  0.8628764092337882  1.0000
  C   C99       1.0  0.621378534872652  0.7021791208564527  0.8513503581360529  1.0000
  C   C100      1.0  0.624825689298664  0.7086444039533105  0.8201773606885623  1.0000
  C   C101      1.0  0.5403428848439701  0.6968276109469276  0.7873867961437658  1.0000
  C   C102      1.0  0.5422924896372611  0.6606475721740103  0.7787581973502554  1.0000
  C   C103      1.0  0.5253372729321337  0.6384297819753837  0.7954344876293388  1.0000
  C   C104      1.0  0.5270360369462984  0.6075973151350342  0.7878897768616142  1.0000
  C   C105      1.0  0.5457432791369186  0.5973177977117586  0.763834074642268  1.0000
  C   C106      1.0  0.5638675810318933  0.6187439372726311  0.7473585043679599  1.0000
  C   C107      1.0  0.5620423903176774  0.6498050704026698  0.7546458212472081  1.0000
  C   C108      1.0  0.5053162402274027  0.7295447818252108  0.8260454690634592  1.0000
  C   C109      1.0  0.47737571687169855  0.7438580613429534  0.8340766306662859  1.0000
  C   C110      1.0  0.45107985003151796  0.7381345766576632  0.8163542349505508  1.0000
  C   C111      1.0  0.45282275586304244  0.7141992228963187  0.7940129177131665  1.0000
  C   C112      1.0  0.48007379156164065  0.6989644954965435  0.7870349457824541  1.0000
  C   C113      1.0  0.5078927634455741  0.7081008214593821  0.8013120416515193  1.0000
  C   C114      1.0  0.4203254813716612  0.7588614056828551  0.8196129832633708  1.0000
  C   C115      1.0  0.3637305305095199  0.6888685585332235  0.8699228621073062  1.0000
  C   C116      1.0  0.38311707494550923  0.7081474736473358  0.8864291307352858  1.0000
  C   C117      1.0  0.4015386155856028  0.7304579141932731  0.8716915595611484  1.0000
  C   C118      1.0  0.39976838103142665  0.7346908626053474  0.8393850844396333  1.0000
  C   C119      1.0  0.38034423892895786  0.7146639320471416  0.8227512995733259  1.0000
  C   C120      1.0  0.3631177353681464  0.6916181661332411  0.8372196697998826  1.0000
  C   C121      1.0  0.40619003970769385  0.7703173877418663  0.7870278615469914  1.0000
  C   C122      1.0  0.4240679970962096  0.7745686228620546  0.7599684434914808  1.0000
  C   C123      1.0  0.4106329798491112  0.7835347617399443  0.731957376472154  1.0000
  C   C124      1.0  0.3794902729649646  0.7908524909016189  0.7313197952805153  1.0000
  C   C125      1.0  0.3617789456624478  0.788361433084368  0.7574204801367469  1.0000
  C   C126      1.0  0.3748418541873286  0.7789587460846458  0.7851670690321347  1.0000
  C   C127      1.0  0.4025930332615897  0.8054976105301695  0.8549892937520353  1.0000
  C   C128      1.0  0.4067634864925313  0.8350860406206455  0.8680644310042703  1.0000
  C   C129      1.0  0.4313892494878417  0.8532754997382677  0.8581771997102289  1.0000
  C   C130      1.0  0.45371939915984055  0.8404711171807869  0.8389458618409488  1.0000
  C   C131      1.0  0.45104491324086343  0.8102977830981386  0.8279818267565842  1.0000
  C   C132      1.0  0.4250114101481979  0.7920406817530368  0.8356068255262188  1.0000
  H   H61       1.0  0.6037153600165559  0.711081390252717  0.7748949276112892  1.0000
  H   H62       1.0  0.5438317000962887  0.6856610432680426  0.8524602216918685  1.0000
  H   H63       1.0  0.5898474148848266  0.6859281878558927  0.8870785189860291  1.0000
  H   H64       1.0  0.6477210374273761  0.7150662610948073  0.8117683731943939  1.0000
  H   H65       1.0  0.5095767241009592  0.6449487046729958  0.8141203393679945  1.0000
  H   H66       1.0  0.5131078722320607  0.5911966967360671  0.8011703569422662  1.0000
  H   H67       1.0  0.5800803138488932  0.6123272820439057  0.7291307665225557  1.0000
  H   H68       1.0  0.5765847269773854  0.6653369397652358  0.7410535348061994  1.0000
  H   H69       1.0  0.5258648752518479  0.7381118179779604  0.8380745008790427  1.0000
  H   H70       1.0  0.4791402355954267  0.7614454170152547  0.8529018057023737  1.0000
  H   H71       1.0  0.4313159096739071  0.7079442636300455  0.7816485654190176  1.0000
  H   H72       1.0  0.4802467022255782  0.6813257589998417  0.7684577189875591  1.0000
  H   H73       1.0  0.3846854647351176  0.7040187701969244  0.9118520903989238  1.0000
  H   H74       1.0  0.4167127428514039  0.7449683055432412  0.8853783024749925  1.0000
  H   H75       1.0  0.37819483825115013  0.7161455981485603  0.7970284406084356  1.0000
  H   H76       1.0  0.34914095656119476  0.6764931018336666  0.8229354896953548  1.0000
  H   H77       1.0  0.4485751086604259  0.77043616849124  0.7605587964467019  1.0000
  H   H78       1.0  0.4239106664205197  0.7847217937079419  0.7104543604311835  1.0000
  H   H79       1.0  0.3378129380389476  0.7943608481452638  0.7570686297754353  1.0000
  H   H80       1.0  0.3607123009271629  0.7813559172123434  0.8063536558891069  1.0000
  H   H81       1.0  0.38259103183334253  0.7924996954061443  0.8607086331822166  1.0000
  H   H82       1.0  0.3877244633432189  0.8437125201637548  0.8817228369762639  1.0000
  H   H83       1.0  0.47288083547498005  0.8558058751867603  0.8317860612000283  1.0000
  H   H84       1.0  0.46778412450269874  0.8012701657129966  0.810828531289682  1.0000
  C   C133      1.0  0.8448188304706788  0.5152697197404659  0.25397220274790344  1.0000
  C   C134      1.0  0.8454559158539527  0.5216891111742139  0.2223802908433879  1.0000
  C   C135      1.0  0.8204059883549868  0.5164556843693342  0.20389681209778193  1.0000
  C   C136      1.0  0.7932715608833472  0.5041852772044758  0.21634499451157235  1.0000
  C   C137      1.0  0.7927898987245227  0.4963428643081985  0.24800491507652933  1.0000
  C   C138      1.0  0.818626707485915  0.5014810998187457  0.26654199787046934  1.0000
  H   H85       1.0  0.865772459404841  0.5325854970977698  0.21050262552552304  1.0000
  H   H86       1.0  0.8227016700823446  0.5251461804594773  0.1798883381148535  1.0000
  H   H87       1.0  0.7711557427180427  0.48948587298810203  0.25957583299886133  1.0000
  H   H88       1.0  0.8173772470265831  0.4968341915585698  0.2911998601041409  1.0000
  C   C139      1.0  0.7410845957611405  0.451966746551771  0.2137346898847671  1.0000
  C   C140      1.0  0.7342887319102187  0.4814643131033853  0.20315438422129597  1.0000
  C   C141      1.0  0.704058726511865  0.48788432440859847  0.19479805621073348  1.0000
  C   C142      1.0  0.6807082566225756  0.4666204494740623  0.1973035141526915  1.0000
  C   C143      1.0  0.687600368836161  0.4369675069678841  0.20773906527154243  1.0000
  C   C144      1.0  0.7176771996670918  0.43016136247841624  0.2162342442971729  1.0000
  C   C145      1.0  0.7607159112680174  0.5067107852424935  0.1967318163508555  1.0000
  C   C146      1.0  0.7657321080983401  0.5005737029234482  0.16057104485529342  1.0000
  C   C147      1.0  0.750324692107857  0.5175009437406467  0.13763134586249715  1.0000
  C   C148      1.0  0.755368123415883  0.5126666218252934  0.1063060373525594  1.0000
  C   C149      1.0  0.7748742529559396  0.4883784419867571  0.09676357218436683  1.0000
  C   C150      1.0  0.7904015086593816  0.4713637738043074  0.11908363671536315  1.0000
  C   C151      1.0  0.7851797993951323  0.47654761158823833  0.15034825694150417  1.0000
  C   C152      1.0  0.7340020218560199  0.5487882284379766  0.23379086890308182  1.0000
  C   C153      1.0  0.7345805852929499  0.5777358488377315  0.24798130095832052  1.0000
  C   C154      1.0  0.7546585355724299  0.600566536417131  0.2380066974269062  1.0000
  C   C155      1.0  0.7687987083750848  0.5960898826617826  0.20850770481924016  1.0000
  C   C156      1.0  0.7677878107991616  0.5676242024792689  0.19343575773126548  1.0000
  C   C157      1.0  0.7523271960608435  0.5427663249506107  0.20678458261354105  1.0000
  C   C158      1.0  0.7586818733034801  0.6326106233812836  0.2569216061121876  1.0000
  C   C159      1.0  0.681428589921251  0.6891993389058041  0.2208798497723981  1.0000
  C   C160      1.0  0.6776556784829162  0.6722671256158653  0.24781600213085864  1.0000
  C   C161      1.0  0.7013607602321473  0.6529582990882137  0.2580503609625702  1.0000
  C   C162      1.0  0.7299307166220372  0.6511510574232865  0.24284995307153942  1.0000
  C   C163      1.0  0.7323793767865007  0.6662474680067478  0.21425254749708694  1.0000
  C   C164      1.0  0.7089016419689818  0.6853471730599895  0.20361438724400419  1.0000
  C   C165      1.0  0.7914364416333322  0.6492334019327236  0.2509921010299477  1.0000
  C   C166      1.0  0.8192357036783422  0.6328031983328519  0.2505032887830247  1.0000
  C   C167      1.0  0.8479913033242727  0.6479655946834171  0.2516910789289294  1.0000
  C   C168      1.0  0.8490577970196632  0.6800422691552443  0.2514572991586619  1.0000
  C   C169      1.0  0.8217425775142296  0.6966663550236013  0.25045369913478616  1.0000
  C   C170      1.0  0.7936440071200286  0.6815461381768114  0.2505434327839797  1.0000
  C   C171      1.0  0.7530590271769703  0.6565893766044254  0.3131586286265419  1.0000
  C   C172      1.0  0.7526202930878209  0.6545003143078485  0.34511325338674526  1.0000
  C   C173      1.0  0.7576966476073985  0.6267868455668829  0.3598342946781366  1.0000
  C   C174      1.0  0.7667878753857654  0.6013497228998659  0.34215912719881925  1.0000
  C   C175      1.0  0.7683108411835224  0.6032597115848808  0.3095173315987387  1.0000
  C   C176      1.0  0.7592195547592273  0.6302028612521516  0.29427677970675287  1.0000
  H   H89       1.0  0.7648049220754534  0.44532170251723746  0.2192148182974928  1.0000
  H   H90       1.0  0.6979326076686645  0.5104173570178742  0.18670266420637868  1.0000
  H   H91       1.0  0.6576685807796979  0.4738085868478765  0.18872639413687634  1.0000
  H   H92       1.0  0.7235509190382484  0.4069716093278827  0.22397991121085473  1.0000
  H   H93       1.0  0.735473694990058  0.5362541500807956  0.14475596146728648  1.0000
  H   H94       1.0  0.7440448385861259  0.5270947294083962  0.08920445680453482  1.0000
  H   H95       1.0  0.8071809616519849  0.45286297677904697  0.11350810726507375  1.0000
  H   H96       1.0  0.797084661915292  0.4618867827641541  0.16777335090898984  1.0000
  H   H97       1.0  0.7209004189196485  0.5296062619002792  0.2446186505253816  1.0000
  H   H98       1.0  0.7200167839424066  0.5812771766526844  0.2684736327399525  1.0000
  H   H99       1.0  0.7828999073953372  0.6140506347005534  0.19811796508971444  1.0000
  H   H100      1.0  0.782246287387256  0.5642447192019239  0.17277883554571782  1.0000
  H   H101      1.0  0.6567795921230567  0.6736755018337517  0.2617813916395671  1.0000
  H   H102      1.0  0.696405889211513  0.6400614538643512  0.27920861087769155  1.0000
  H   H103      1.0  0.7527066453021355  0.6640592252188509  0.20024843083451602  1.0000
  H   H104      1.0  0.712935639129208  0.699317212330371  0.1831707005458824  1.0000
  H   H105      1.0  0.8193851802747658  0.6076848781103734  0.25136284268582654  1.0000
  H   H106      1.0  0.8694822435050851  0.6344713351040444  0.2539674799242616  1.0000
  H   H107      1.0  0.8221657052562412  0.7217421370604332  0.25155175563149723  1.0000
  H   H108      1.0  0.7732835696824103  0.6960354883455658  0.2523900568279111  1.0000
  H   H109      1.0  0.7467985738316683  0.6780174877706158  0.301932476830059  1.0000
  H   H110      1.0  0.7494571876222311  0.6757564870826802  0.3581458852262045  1.0000
  H   H111      1.0  0.7736419172663366  0.5791031196638026  0.352452521326053  1.0000
  H   H112      1.0  0.7752896394005782  0.5820088503222705  0.29756150354960265  1.0000
  C   C177      1.0  0.7180639426880849  0.6693763241533229  0.6062665094819571  1.0000
  C   C178      1.0  0.6873560781653067  0.6658707409476842  0.5976898617485062  1.0000
  C   C179      1.0  0.6675653063137382  0.6908028497215579  0.597387601035433  1.0000
  C   C180      1.0  0.6774617190657695  0.7207715119708965  0.6043986327316379  1.0000
  C   C181      1.0  0.7091166818411279  0.7237262537980869  0.6127178865766124  1.0000
  C   C182      1.0  0.7288104217981989  0.6983477517801212  0.6132043374117145  1.0000
  H   H113      1.0  0.6775713923763557  0.644477535623293  0.589261982959771  1.0000
  H   H114      1.0  0.643750168577265  0.6871059291847486  0.5900743086261551  1.0000
  H   H115      1.0  0.7185693939134895  0.7461809574114138  0.6185836335396885  1.0000
  H   H116      1.0  0.7530045117482547  0.702248086964936  0.6190464702565818  1.0000
  C   C183      1.0  0.666997752999384  0.7765790577466659  0.6500234705229392  1.0000
  C   C184      1.0  0.66225097768963  0.7797843890463528  0.6183947205940178  1.0000
  C   C185      1.0  0.6579702465772403  0.809856262255878  0.6075818158661896  1.0000
  C   C186      1.0  0.6540961976497387  0.8344333641383475  0.6279017645848971  1.0000
  C   C187      1.0  0.6582291923493246  0.8302851115314343  0.6595257916901767  1.0000
  C   C188      1.0  0.6672095781458074  0.8016628547153459  0.670622065836511  1.0000
  C   C189      1.0  0.6573009603330144  0.7506948542359976  0.595942417001052  1.0000
  C   C190      1.0  0.6208392812550317  0.7463733391214844  0.6023229517410807  1.0000
  C   C191      1.0  0.5988098311304704  0.7642545649705512  0.5863739763028296  1.0000
  C   C192      1.0  0.5689476255682092  0.7687276095000734  0.597855160575968  1.0000
  C   C193      1.0  0.5606157476968929  0.7564957519357999  0.6265510370233515  1.0000
  C   C194      1.0  0.5811187080613682  0.7370230979899778  0.6417726976207702  1.0000
  C   C195      1.0  0.6108028556990786  0.7320491563057966  0.6298829891026188  1.0000
  C   C196      1.0  0.6903384863494141  0.7740891939905628  0.5488251669389519  1.0000
  C   C197      1.0  0.6983143067988964  0.7751970176615657  0.5177678786706846  1.0000
  C   C198      1.0  0.6856776359144222  0.754626551648572  0.4958728682674474  1.0000
  C   C199      1.0  0.661240335779807  0.7358495878798772  0.5055759094394601  1.0000
  C   C200      1.0  0.651636939821296  0.7359179100950747  0.5363687195837884  1.0000
  C   C201      1.0  0.6664400870542212  0.75431970847593  0.559215378950842  1.0000
  C   C202      1.0  0.6983166038549955  0.7521560351838371  0.4607279761372297  1.0000
  C   C203      1.0  0.6351602789504921  0.8128967599387605  0.4075702346373082  1.0000
  C   C204      1.0  0.660518979361769  0.8251359267267186  0.4229784467685768  1.0000
  C   C205      1.0  0.679848896380376  0.8061440370402285  0.440717372367058  1.0000
  C   C206      1.0  0.6742754972958341  0.7740379302598352  0.44281194465218215  1.0000
  C   C207      1.0  0.6460550741857988  0.7634052634610575  0.43026104082418337  1.0000
  C   C208      1.0  0.6274566586877091  0.7822068775895725  0.412137205098898  1.0000
  C   C209      1.0  0.7012105489838267  0.7172970800303344  0.44682398333586426  1.0000
  C   C210      1.0  0.7080178666280987  0.6913057048646153  0.4655428948400124  1.0000
  C   C211      1.0  0.714138499978195  0.6619350391339717  0.4530486648957147  1.0000
  C   C212      1.0  0.712016264248017  0.6569448914414069  0.4212782302575403  1.0000
  C   C213      1.0  0.7026941421116255  0.6814650186330735  0.40246013945691506  1.0000
  C   C214      1.0  0.698652451169358  0.7113293815966566  0.41458598915715483  1.0000
  C   C215      1.0  0.7458372301816162  0.7713833678176865  0.4275973682902261  1.0000
  C   C216      1.0  0.7772625126017442  0.7727193271442993  0.42090512718984063  1.0000
  C   C217      1.0  0.7980818716799079  0.7649610523554689  0.44451924539868143  1.0000
  C   C218      1.0  0.7882132286641699  0.7548490060494806  0.47303565454767754  1.0000
  C   C219      1.0  0.7566827018796134  0.7529781110093564  0.4789202928053206  1.0000
  C   C220      1.0  0.7348056935412904  0.7612001911530887  0.45674899721904  1.0000
  H   H117      1.0  0.6686084634262456  0.7541702459033374  0.6611976712593626  1.0000
  H   H118      1.0  0.6530780979276453  0.8135745806044988  0.5829546519861895  1.0000
  H   H119      1.0  0.6439883771841993  0.8554377887648149  0.6183026255330033  1.0000
  H   H120      1.0  0.6692240164995965  0.799224146993051  0.6960757238538204  1.0000
  H   H121      1.0  0.6054183592117367  0.775959852823191  0.5650764030902762  1.0000
  H   H122      1.0  0.5532366455531322  0.7833003596345043  0.5845249908470774  1.0000
  H   H123      1.0  0.5755574792306036  0.7253715558593712  0.6638330068514692  1.0000
  H   H124      1.0  0.6265064977742331  0.7197221905183071  0.64479058192786  1.0000
  H   H125      1.0  0.7028368321270384  0.7891221606393134  0.5642522703647876  1.0000
  H   H126      1.0  0.7162410040393555  0.7920314174587161  0.5112527434568654  1.0000
  H   H127      1.0  0.6504671384563522  0.7203631798576456  0.4888169697466458  1.0000
  H   H128      1.0  0.6335526330878966  0.7203868957649059  0.5430019253886519  1.0000
  H   H129      1.0  0.6653423355613334  0.8492972632205176  0.4216041050888223  1.0000
  H   H130      1.0  0.6999745169841597  0.8159368788075806  0.4523000973484944  1.0000
  H   H131      1.0  0.6393546107578563  0.739194515726307  0.4320958578090103  1.0000
  H   H132      1.0  0.606899719582336  0.7718815101723561  0.40151793614038234  1.0000
  H   H133      1.0  0.7113032336035433  0.6947985553256109  0.49062581120144305  1.0000
  H   H134      1.0  0.7207218807500795  0.6433472587320932  0.468055437017433  1.0000
  H   H135      1.0  0.698894808940485  0.6780921358152665  0.3774787638037824  1.0000
  H   H136      1.0  0.6936225110229152  0.7298448470948696  0.39857561701156075  1.0000
  H   H137      1.0  0.7293358726487483  0.7784140804123316  0.4093365706793295  1.0000
  H   H138      1.0  0.784829655929511  0.7808460460873998  0.3980136009981904  1.0000
  H   H139      1.0  0.8044171662538975  0.7473068727658401  0.4912633923930817  1.0000
  H   H140      1.0  0.7496753144942291  0.7419838032957566  0.5003784420216942  1.0000
  C   C221      1.0  0.05171136416355385  0.8237209039079747  0.41559903482831406  1.0000
  C   C222      1.0  0.04541441610979104  0.8549178518295666  0.4184020306597035  1.0000
  C   C223      1.0  0.04102030047583904  0.8735242602271351  0.3920581203859207  1.0000
  C   C224      1.0  0.043684786866250776  0.8609975275950227  0.36173759260576915  1.0000
  C   C225      1.0  0.04732295710376787  0.8285267916579038  0.3594918899641084  1.0000
  C   C226      1.0  0.05195945188151633  0.8105086242156817  0.38584760729699563  1.0000
  H   H141      1.0  0.04441208683749162  0.8669957544528248  0.44058513330508847  1.0000
  H   H142      1.0  0.03534300968465493  0.8984715171017871  0.39565691200094805  1.0000
  H   H143      1.0  0.046654299661141624  0.8167654617527049  0.3372190536695298  1.0000
  H   H144      1.0  0.056083462387991674  0.785638889301212  0.3830587799365315  1.0000
  C   C227      1.0  0.08900373077235092  0.8628222801776819  0.30579574656902536  1.0000
  C   C228      1.0  0.06035534093171066  0.8768171637450158  0.30213555824665506  1.0000
  C   C229      1.0  0.05314951655971654  0.8893579422967421  0.2727761250776033  1.0000
  C   C230      1.0  0.07328148088412037  0.8862813496799483  0.24778294236536624  1.0000
  C   C231      1.0  0.10087889443148025  0.870804263282106  0.251169206916514  1.0000
  C   C232      1.0  0.10893031654549765  0.8588809857151947  0.28017206690061225  1.0000
  C   C233      1.0  0.03743361451881333  0.8825528201229073  0.33124468176269306  1.0000
  C   C234      1.0  0.04473686676191395  0.9187829083484366  0.33746700191072265  1.0000
  C   C235      1.0  0.02548904876973206  0.9417609825276203  0.32551589668522835  1.0000
  C   C236      1.0  0.03342752703650393  0.9728841182577517  0.32614639364140435  1.0000
  C   C237      1.0  0.06038631137429015  0.9821749975291445  0.340983144112019  1.0000
  C   C238      1.0  0.0796581572671624  0.9599820940759817  0.35480448749965354  1.0000
  C   C239      1.0  0.07202251780235673  0.9289145367557959  0.35211247802384565  1.0000
  C   C240      1.0  0.9923831972084841  0.853945067725301  0.3018498274163281  1.0000
  C   C241      1.0  0.9619966841067945  0.8427498032101963  0.3011201511636749  1.0000
  C   C242      1.0  0.940798326621509  0.8504632834445947  0.3253057310331696  1.0000
  C   C243      1.0  0.9508916180612218  0.8721354837435906  0.34797292310183586  1.0000
  C   C244      1.0  0.9803356558340856  0.8832678718344167  0.34821378710756606  1.0000
  C   C245      1.0  0.0019464237138129281  0.8733976650135536  0.3260165159912557  1.0000
  C   C246      1.0  0.9061817552915291  0.8356841003291815  0.3249231823181864  1.0000
  C   C247      1.0  0.8516213711091364  0.9062888644090841  0.2756688545581863  1.0000
  C   C248      1.0  0.8627785915409522  0.8804373532180897  0.25911299628196804  1.0000
  C   C249      1.0  0.8807482141388056  0.8585461248915278  0.2742590917011185  1.0000
  C   C250      1.0  0.8888260504223774  0.8625724404793553  0.3055312684450863  1.0000
  C   C251      1.0  0.8808418357699436  0.890695861007528  0.31993588055247923  1.0000
  C   C252      1.0  0.8626095268556382  0.9119103602334162  0.3055548825632952  1.0000
  C   C253      1.0  0.8903010309572794  0.8305027263317946  0.3583938334673973  1.0000
  C   C254      1.0  0.9077317258545733  0.8200377808327335  0.3838356844256024  1.0000
  C   C255      1.0  0.8934992490069413  0.8108301733727352  0.4107227194181885  1.0000
  C   C256      1.0  0.8612473933286635  0.8127150509091124  0.41339819901125013  1.0000
  C   C257      1.0  0.8439941863968811  0.8244484785014524  0.38934485820372494  1.0000
  C   C258      1.0  0.8582556103415845  0.8326599003859235  0.36174231542941093  1.0000
  C   C259      1.0  0.8756912871694035  0.7889414909658767  0.29997486643054616  1.0000
  C   C260      1.0  0.8720563125137587  0.7576882609186397  0.29336527474389157  1.0000
  C   C261      1.0  0.8964832370604626  0.7376563142260611  0.2973442536620812  1.0000
  C   C262      1.0  0.9243548565290917  0.748429935049516  0.30798005250334315  1.0000
  C   C263      1.0  0.9272821633351829  0.7790255692028879  0.3169156348335685  1.0000
  C   C264      1.0  0.9035148829324562  0.8006994247669533  0.31180790106499623  1.0000
  H   H145      1.0  0.0968238843455178  0.8538435572256029  0.32816776216008114  1.0000
  H   H146      1.0  0.030975541636610184  0.9016808084425577  0.2692623442881278  1.0000
  H   H147      1.0  0.06745507339983657  0.8960810883437001  0.22485316130221766  1.0000
  H   H148      1.0  0.1306616860084882  0.8474519501389776  0.2839337959312806  1.0000
  H   H149      1.0  0.00539953654896963  0.9355366966096729  0.31192833306786133  1.0000
  H   H150      1.0  0.019009824389266475  0.9894327867717861  0.3147384131347134  1.0000
  H   H151      1.0  0.1007625064210522  0.9656898023800293  0.3680543692266341  1.0000
  H   H152      1.0  0.0876489682219493  0.9127336827180735  0.36291593710439035  1.0000
  H   H153      1.0  0.00770054031292632  0.8453158365040788  0.28310966320579206  1.0000
  H   H154      1.0  0.9543970230083034  0.8264309720022016  0.28293255731922573  1.0000
  H   H155      1.0  0.9350211921094116  0.8805024040329615  0.3666139080158948  1.0000
  H   H156      1.0  0.9877908479652727  0.8991614690832811  0.36735775273947324  1.0000
  H   H157      1.0  0.8551011443837797  0.8752096839243437  0.23520677143088392  1.0000
  H   H158      1.0  0.888981789606879  0.8380220901432041  0.2614035657482256  1.0000
  H   H159      1.0  0.8884981404483755  0.8949948671785395  0.34411673759833217  1.0000
  H   H160      1.0  0.8550202386194758  0.9322571250376207  0.3189251962931408  1.0000
  H   H161      1.0  0.9327644799495396  0.816177680247492  0.38057221328914054  1.0000
  H   H162      1.0  0.9075549726099768  0.7998899326576099  0.42920076691660636  1.0000
  H   H163      1.0  0.8190067241860142  0.8259817508111157  0.3905964064687935  1.0000
  H   H164      1.0  0.8436542131658415  0.8384666054434357  0.3421071761387598  1.0000
  H   H165      1.0  0.8566480516665901  0.8045576507394823  0.2952260672587483  1.0000
  H   H166      1.0  0.850481745102574  0.7485965428393792  0.2841534072306228  1.0000
  H   H167      1.0  0.9440061439699405  0.7323178776638516  0.31034146432422727  1.0000
  H   H168      1.0  0.9480112893370245  0.7861166331762937  0.3298467259647297  1.0000
  C   C265      1.0  0.46108355600524387  0.24332501956361888  0.923682763621553  1.0000
  C   C266      1.0  0.4643385036096526  0.21173589348088623  0.9192834533992461  1.0000
  C   C267      1.0  0.45646114336007987  0.19799657332754128  0.8908355251930555  1.0000
  C   C268      1.0  0.4480820648224236  0.2160353892356463  0.8650961363454192  1.0000
  C   C269      1.0  0.44476475287390566  0.24786304476698445  0.8706548997717802  1.0000
  C   C270      1.0  0.45114327072790594  0.2616201243843217  0.8992563197463281  1.0000
  H   H169      1.0  0.47276197334896547  0.19777608974084596  0.9382125305554528  1.0000
  H   H170      1.0  0.46054068859223046  0.17277907181053248  0.8878932060642339  1.0000
  H   H171      1.0  0.4381007417505263  0.26299655139612715  0.8516006677890666  1.0000
  H   H172      1.0  0.45088703376004313  0.28688359606827957  0.9024749240581931  1.0000
  C   C271      1.0  0.3963456866763449  0.22609527012506891  0.8148334857379015  1.0000
  C   C272      1.0  0.4248033537298112  0.21259333134984917  0.8056287024600953  1.0000
  C   C273      1.0  0.4298884456775203  0.20813431759305323  0.7736008739334447  1.0000
  C   C274      1.0  0.4085253563085919  0.21781448208130996  0.7519467275359376  1.0000
  C   C275      1.0  0.38074964966463737  0.23111227459034964  0.7613852905840114  1.0000
  C   C276      1.0  0.37480194515565785  0.23607990813028962  0.7932950485196179  1.0000
  C   C277      1.0  0.45051156285640565  0.20074989233487447  0.8300504235116785  1.0000
  C   C278      1.0  0.4439786237226092  0.16419376088232182  0.8297458013867846  1.0000
  C   C279      1.0  0.4618566255198311  0.14425549878862423  0.8112465011819787  1.0000
  C   C280      1.0  0.45325824853989327  0.11414193132027442  0.8071093076717897  1.0000
  C   C281      1.0  0.4289186575993555  0.10194906348619769  0.8238446332463951  1.0000
  C   C282      1.0  0.41131979611705166  0.12116031623093962  0.8429720689955562  1.0000
  C   C283      1.0  0.4175438402632918  0.1524271745171455  0.8440512341977001  1.0000
  C   C284      1.0  0.49164465056809453  0.23684219685474323  0.805413813984395  1.0000
  C   C285      1.0  0.521118533920485  0.2482245211338886  0.8028823805124073  1.0000
  C   C286      1.0  0.5458311863043848  0.23657174495998204  0.820200974806771  1.0000
  C   C287      1.0  0.539538890421094  0.2098868036571458  0.8374652566292544  1.0000
  C   C288      1.0  0.510228611367439  0.1966483595113443  0.8374274740401204  1.0000
  C   C289      1.0  0.48533185128984024  0.21019648494735976  0.8220003706142847  1.0000
  C   C290      1.0  0.5806712903183181  0.2507478546967455  0.8177876119258276  1.0000
  C   C291      1.0  0.6249839060779813  0.18223537313851  0.7543695360641647  1.0000
  C   C292      1.0  0.611277653417608  0.20901663903406822  0.7421350614201644  1.0000
  C   C293      1.0  0.5963586313916495  0.22992046970992144  0.7614962769395929  1.0000
  C   C294      1.0  0.5963999419337476  0.22618062157215918  0.794024724772271  1.0000
  C   C295      1.0  0.6083143680819133  0.19844267762882237  0.8053996455134695  1.0000
  C   C296      1.0  0.6216634357234326  0.176191643876906  0.7862037288215029  1.0000
  C   C297      1.0  0.5974563473606099  0.2531618666251253  0.8511165783657855  1.0000
  C   C298      1.0  0.580738203715317  0.25956759152789954  0.8784900641934736  1.0000
  C   C299      1.0  0.5959019935009613  0.26698101033226174  0.906309856855309  1.0000
  C   C300      1.0  0.6280130488369103  0.2689015106279529  0.9062815199134583  1.0000
  C   C301      1.0  0.6444248362556106  0.2614963795952466  0.8798596830495864  1.0000
  C   C302      1.0  0.6295516656625483  0.25442421476235993  0.852346873924466  1.0000
  C   C303      1.0  0.6047505363117418  0.2989601416010221  0.7902842484479906  1.0000
  C   C304      1.0  0.6055816149255412  0.33043583645599617  0.7836274285249184  1.0000
  C   C305      1.0  0.5840421796812899  0.35091237025712724  0.7966458918934523  1.0000
  C   C306      1.0  0.5619932900235238  0.33985250847887755  0.8170744655559206  1.0000
  C   C307      1.0  0.5606027186144452  0.3083101808673954  0.8230889814637123  1.0000
  C   C308      1.0  0.5815514296875364  0.2873048594324733  0.8091708201914215  1.0000
  H   H173      1.0  0.3895474034931242  0.22856082230000846  0.8394700952651851  1.0000
  H   H174      1.0  0.4506282813702336  0.19707376128416193  0.7655224840942002  1.0000
  H   H175      1.0  0.4142226236834292  0.2141941308259  0.727208577300356  1.0000
  H   H176      1.0  0.3523444439910921  0.24527055007267265  0.8011939710604752  1.0000
  H   H177      1.0  0.4820615441173731  0.15185546287506116  0.7981760867533854  1.0000
  H   H178      1.0  0.46761233334744723  0.09838077594823723  0.7934674315825424  1.0000
  H   H179      1.0  0.39063173544209867  0.1125685297166568  0.8562762631944172  1.0000
  H   H180      1.0  0.40288610052711354  0.16815432181367182  0.8580024552354834  1.0000
  H   H181      1.0  0.4735936957357531  0.25029247522838177  0.7938334504147795  1.0000
  H   H182      1.0  0.5253964622465881  0.2685087531207444  0.7886029232315213  1.0000
  H   H183      1.0  0.5592167831006556  0.19951939039047598  0.85051441835146  1.0000
  H   H184      1.0  0.5067617469797883  0.17706921072649615  0.8536739873678029  1.0000
  H   H185      1.0  0.6110650044435769  0.2132825807965917  0.7168892076430926  1.0000
  H   H186      1.0  0.5850785345701902  0.24926275455133293  0.7494577994767259  1.0000
  H   H187      1.0  0.6073144544865151  0.19454448594757337  0.830713980233347  1.0000
  H   H188      1.0  0.6308320395172005  0.1552952705272005  0.7963814137695134  1.0000
  H   H189      1.0  0.5554996345841033  0.261183946570535  0.8783814392497129  1.0000
  H   H190      1.0  0.5838280345964432  0.2739857087848709  0.9280537369020095  1.0000
  H   H191      1.0  0.6691405271562876  0.2632045004566931  0.8805869978904187  1.0000
  H   H192      1.0  0.643395161736555  0.2535014196604795  0.8308414964716747  1.0000
  H   H193      1.0  0.6241280419108192  0.2849277485598545  0.7820901494295229  1.0000
  H   H194      1.0  0.625730135951478  0.3400192854259617  0.7703492098560872  1.0000
  H   H195      1.0  0.5461646195881992  0.3560741805575134  0.8285556498290589  1.0000
  H   H196      1.0  0.542384668206403  0.30080145227216915  0.8381217291154603  1.0000
  C   C309      1.0  0.7843472590391557  0.42315405493558667  0.0567076518902565  1.0000
  C   C310      1.0  0.8151492005667679  0.4174301282594924  0.05001824448405608  1.0000
  C   C311      1.0  0.8287986563601617  0.3905204616417852  0.0582947567750727  1.0000
  C   C312      1.0  0.8123857754438762  0.3667848989464929  0.07337733021624138  1.0000
  C   C313      1.0  0.7812717361422963  0.372940963274987  0.0806108069059735  1.0000
  C   C314      1.0  0.7674450036979239  0.4012684916531474  0.07322053247133467  1.0000
  H   H197      1.0  0.8290523057288057  0.43410459025927556  0.0376090769201054  1.0000
  H   H198      1.0  0.8521758357424754  0.38577046882728155  0.05042346275251979  1.0000
  H   H199      1.0  0.7664423200771108  0.355463141412967  0.08947035177556636  1.0000
  H   H200      1.0  0.7435176613916981  0.40506964127952083  0.08044810563151457  1.0000
  C   C315      1.0  0.80365124619304  0.3264920658546828  0.13369274708644457  1.0000
  C   C316      1.0  0.811319775906063  0.3122728872660204  0.1050917993942608  1.0000
  C   C317      1.0  0.8101422100819593  0.2796790184307052  0.103158511536503  1.0000
  C   C318      1.0  0.8014968147613286  0.2619410662070054  0.12801969132795266  1.0000
  C   C319      1.0  0.7932815236348526  0.2773272369000554  0.15637576061431077  1.0000
  C   C320      1.0  0.7945240811640341  0.30904935239437026  0.15868049855149363  1.0000
  C   C321      1.0  0.8265077600343275  0.33289038041458074  0.0776651818006027  1.0000
  C   C322      1.0  0.861852049544433  0.33196768578970204  0.08840535504434764  1.0000
  C   C323      1.0  0.881041075249074  0.30675105591450585  0.08117518433116479  1.0000
  C   C324      1.0  0.9089845596931283  0.3030321088276026  0.0959129916464844  1.0000
  C   C325      1.0  0.9198065785759056  0.32421782055126835  0.11695624080592869  1.0000
  C   C326      1.0  0.9018234726373591  0.34996650139006197  0.12367540200107223  1.0000
  C   C327      1.0  0.8729336306674037  0.35362447440148864  0.11016505655024815  1.0000
  C   C328      1.0  0.7937453277394608  0.3063182370224093  0.03299251681027715  1.0000
  C   C329      1.0  0.7849725372694462  0.30644882409253127  0.001753399831801561  1.0000
  C   C330      1.0  0.8041607684783761  0.31875545598261135  0.9788595122283305  1.0000
  C   C331      1.0  0.8340332076621874  0.3271521087458473  0.9883689176310305  1.0000
  C   C332      1.0  0.8422726576624112  0.3285420199403208  0.0189775376533301  1.0000
  C   C333      1.0  0.8214722628545591  0.3201176991380679  0.04249483797751452  1.0000
  C   C334      1.0  0.7950597480508308  0.32184111127070597  0.9431313513783545  1.0000
  C   C335      1.0  0.8330480363886938  0.23339701010394648  0.9076133561804369  1.0000
  C   C336      1.0  0.803945031497598  0.23443645337249436  0.9207782270818656  1.0000
  C   C337      1.0  0.7918612431016576  0.262117558265246  0.9317776833435437  1.0000
  C   C338      1.0  0.8090532222318304  0.2895710955713012  0.9298059044731055  1.0000
  C   C339      1.0  0.8397869325975097  0.28697128615154577  0.9197439287043185  1.0000
  C   C340      1.0  0.851441546579901  0.2593162320625468  0.9082816357257472  1.0000
  C   C341      1.0  0.8080824913515183  0.35182438845983727  0.9260323683833328  1.0000
  C   C342      1.0  0.8100893359624733  0.3801665531739688  0.9423827838311342  1.0000
  C   C343      1.0  0.82420138309205  0.40579526365207097  0.9286015844444546  1.0000
  C   C344      1.0  0.8330957137975697  0.4047729480913041  0.8973648288778  1.0000
  C   C345      1.0  0.8277407136918351  0.3779311586776368  0.8799753922288097  1.0000
  C   C346      1.0  0.8160472372289478  0.3521325440931416  0.8940588523285623  1.0000
  C   C347      1.0  0.74527429823346  0.31439044762550533  0.9085224997314774  1.0000
  C   C348      1.0  0.7134159322214  0.3130132817825198  0.9037170266759783  1.0000
  C   C349      1.0  0.693380167041535  0.322726808953451  0.9271398705273273  1.0000
  C   C350      1.0  0.7053953494475275  0.33656400916800205  0.9538096556323922  1.0000
  C   C351      1.0  0.7371377815790153  0.33984329392531337  0.9573588575991809  1.0000
  C   C352      1.0  0.7581679398147739  0.32575355930465927  0.9364296646306854  1.0000
  H   H201      1.0  0.8056669635036374  0.35163112202058955  0.13658169830811415  1.0000
  H   H202      1.0  0.8191491751380511  0.2685872463740008  0.08262060450672792  1.0000
  H   H203      1.0  0.8020877556454852  0.23668753893322667  0.12637780168889198  1.0000
  H   H204      1.0  0.7898920924149315  0.32043329127084175  0.1805245024593997  1.0000
  H   H205      1.0  0.8731611817731292  0.28711008368647223  0.06765751850369597  1.0000
  H   H206      1.0  0.9218384040120758  0.28147218019081005  0.09064893241536962  1.0000
  H   H207      1.0  0.9102768016289761  0.3671012994086347  0.14025676352495606  1.0000
  H   H208      1.0  0.8589755114603651  0.3731900249339773  0.11881821402669576  1.0000
  H   H209      1.0  0.7769508366242142  0.29998746309839514  0.050442826329451046  1.0000
  H   H210      1.0  0.7625789863408822  0.29580304567795707  0.9940835342375701  1.0000
  H   H211      1.0  0.8512762434465526  0.334978252989723  0.971574556760903  1.0000
  H   H212      1.0  0.8652451369923793  0.337902563473609  0.025214026272284862  1.0000
  H   H213      1.0  0.7904021014789043  0.21351273414367591  0.921281207799714  1.0000
  H   H214      1.0  0.769086024252205  0.26151397055579795  0.9427015744269535  1.0000
  H   H215      1.0  0.855446298421176  0.3072384558782748  0.9194888962276629  1.0000
  H   H216      1.0  0.8742614840197405  0.25871349471738325  0.8978914237138571  1.0000
  H   H217      1.0  0.7994176279342178  0.3816459684965752  0.9655246196757981  1.0000
  H   H218      1.0  0.8260388760786049  0.4276547387191032  0.9420120421752552  1.0000
  H   H219      1.0  0.8342384930657839  0.37617481373713424  0.855156953991318  1.0000
  H   H220      1.0  0.8118993955041064  0.3322218212777905  0.8793874006854095  1.0000
  H   H221      1.0  0.7602081082878254  0.3051989041052039  0.8903018461215358  1.0000
  H   H222      1.0  0.7043901272591322  0.30190417262805164  0.8830712031259886  1.0000
  H   H223      1.0  0.6906453460275649  0.3438630240456951  0.97306224620806  1.0000
  H   H224      1.0  0.7460167807198709  0.3506271669895324  0.9786705992826596  1.0000
  C   C353      1.0  0.6090923125655303  0.5578559022456141  0.7609484293971478  1.0000
  C   C354      1.0  0.6187445952044156  0.5434367609477673  0.7334356202720274  1.0000
  C   C355      1.0  0.6483124738758547  0.5486140485052954  0.7224408868339911  1.0000
  C   C356      1.0  0.6686528171598624  0.5683955804725721  0.7385339083933161  1.0000
  C   C357      1.0  0.657964211026426  0.5827906829211433  0.7659711523401681  1.0000
  C   C358      1.0  0.6283252693339124  0.5770550208339408  0.7771547987238753  1.0000
  H   H225      1.0  0.6026833357330871  0.5286726591803425  0.7205777329073136  1.0000
  H   H226      1.0  0.6560210705655355  0.5347528516637539  0.7027514350714597  1.0000
  H   H227      1.0  0.6721664152344821  0.597900863752935  0.7814195084723918  1.0000
  H   H228      1.0  0.6204491502920024  0.588382682181621  0.798466540407354  1.0000
  C   C359      1.0  0.7122962449585066  0.6301346598717229  0.7389589625210752  1.0000
  C   C360      1.0  0.7232264863135378  0.5993368497907515  0.7427088844926392  1.0000
  C   C361      1.0  0.7531303357644517  0.5951670372922057  0.7541263106466137  1.0000
  C   C362      1.0  0.7707172332337366  0.6198981413329783  0.7648730958434572  1.0000
  C   C363      1.0  0.7595678805431603  0.6497218583860029  0.7610287173990578  1.0000
  C   C364      1.0  0.7308677824056645  0.6550264378265361  0.7471483387159013  1.0000
  C   C365      1.0  0.704358419389774  0.5702828196359623  0.7286207015692447  1.0000
  C   C366      1.0  0.7101676999288165  0.5776405088036143  0.6925052691806437  1.0000
  C   C367      1.0  0.7389633791863462  0.5710063474849603  0.6792648331009467  1.0000
  C   C368      1.0  0.7460517541964139  0.5807841682352131  0.6491851693265253  1.0000
  C   C369      1.0  0.7247430712592118  0.5967783888090317  0.631590289849118  1.0000
  C   C370      1.0  0.6960777591384751  0.6027042539921083  0.6447079325141291  1.0000
  C   C371      1.0  0.6881296486750187  0.5933241797966217  0.674390879102642  1.0000
  C   C372      1.0  0.7210523858887403  0.5311752041225785  0.7695038244242107  1.0000
  C   C373      1.0  0.7284118028855711  0.5021639001318503  0.7801726830309651  1.0000
  C   C374      1.0  0.7286381635348153  0.4762454738595721  0.7601738863198977  1.0000
  C   C375      1.0  0.721379758467812  0.4819508533932619  0.7288497585158704  1.0000
  C   C376      1.0  0.7151077928082428  0.511261137951557  0.7177038947212977  1.0000
  C   C377      1.0  0.7162119643919562  0.5362773470168495  0.7378089549643047  1.0000
  C   C378      1.0  0.7317783743628994  0.44138722554364573  0.7735442000497434  1.0000
  C   C379      1.0  0.7645532232557194  0.37234514223637166  0.7028175546024444  1.0000
  C   C380      1.0  0.7751421469870924  0.40253094847440524  0.7022838755309246  1.0000
  C   C381      1.0  0.7655671866896072  0.42392000045740535  0.7246181085328463  1.0000
  C   C382      1.0  0.7445995876802808  0.4158057555428162  0.7488556394624004  1.0000
  C   C383      1.0  0.736576571413767  0.3842969173618038  0.7501733072584538  1.0000
  C   C384      1.0  0.7457583576838475  0.36352230256714224  0.7271519034166548  1.0000
  C   C385      1.0  0.6968420988167512  0.4311053418546492  0.78323071133901  1.0000
  C   C386      1.0  0.6704797909322819  0.4424249434019524  0.7686678846396179  1.0000
  C   C387      1.0  0.6404484151199453  0.4339148342764895  0.777891559211991  1.0000
  C   C388      1.0  0.6361594272894954  0.4129063219614123  0.8014041367125337  1.0000
  C   C389      1.0  0.6623499091458159  0.40038168513337646  0.8158843139981949  1.0000
  C   C390      1.0  0.6916507073313403  0.4089546474013643  0.8063914384782409  1.0000
  C   C391      1.0  0.7893909731067041  0.4461120318695751  0.7953187784501156  1.0000
  C   C392      1.0  0.8110720905674499  0.4515774171834923  0.8186849484177634  1.0000
  C   C393      1.0  0.8012407048789774  0.45389399387208623  0.8498107176288365  1.0000
  C   C394      1.0  0.7702957136882346  0.4508016199378565  0.85711220297901  1.0000
  C   C395      1.0  0.7488878483635231  0.44630126120492875  0.8333658457081997  1.0000
  C   C396      1.0  0.7579217032926522  0.44301692100528395  0.8015694355399956  1.0000
  H   H229      1.0  0.6900784498810143  0.6340485247926385  0.729388160411032  1.0000
  H   H230      1.0  0.7648724803686127  0.5727635223617897  0.7545395577152684  1.0000
  H   H231      1.0  0.7936248359029804  0.616211791994021  0.7750696720860345  1.0000
  H   H232      1.0  0.7222188338752413  0.6778319519944733  0.7427679197881613  1.0000
  H   H233      1.0  0.7563067279113415  0.5579780405642671  0.6925336061224943  1.0000
  H   H234      1.0  0.7684457711646737  0.5769651890973987  0.639026375673082  1.0000
  H   H235      1.0  0.677426376147141  0.6149718490294865  0.6319563086813551  1.0000
  H   H236      1.0  0.6651304521015465  0.5987628954818848  0.6830430920143612  1.0000
  H   H237      1.0  0.7179333816113309  0.5500202141447863  0.7872899782591096  1.0000
  H   H238      1.0  0.7292429423752953  0.49977523829406245  0.8052343466860077  1.0000
  H   H239      1.0  0.7180506740530657  0.46261647425610475  0.7131581769660958  1.0000
  H   H240      1.0  0.7089354148896542  0.5134657767667947  0.693435665438072  1.0000
  H   H241      1.0  0.7915255607127129  0.4085294546250395  0.6837019259123878  1.0000
  H   H242      1.0  0.7757130401538429  0.4466157661587112  0.7247645160657411  1.0000
  H   H243      1.0  0.7243231248226683  0.3750513570040451  0.7699430470228953  1.0000
  H   H244      1.0  0.7391783543257499  0.3384658330036834  0.729900586776164  1.0000
  H   H245      1.0  0.6709961568793246  0.4579276058103918  0.7486501966339835  1.0000
  H   H246      1.0  0.6204686932141406  0.442966168431943  0.7668802958912085  1.0000
  H   H247      1.0  0.6602916760770711  0.38315977829604175  0.8344780706758361  1.0000
  H   H248      1.0  0.7124172261382076  0.3983465865989152  0.8166423271926987  1.0000
  H   H249      1.0  0.7989107767094696  0.4452295208745051  0.7716125651802602  1.0000
  H   H250      1.0  0.834353405490672  0.45620468146517223  0.812054104024721  1.0000
  H   H251      1.0  0.7617068300475703  0.4517253899002657  0.8812411089648035  1.0000
  H   H252      1.0  0.7245342420522625  0.4456453573865925  0.8396519239753932  1.0000
  C   C397      1.0  0.2830543952950815  0.15342376765568702  0.01782044586109688  1.0000
  C   C398      1.0  0.31334645618106294  0.155640066339222  0.02790131292445097  1.0000
  C   C399      1.0  0.3285102489715114  0.1832196230923137  0.025147906741300075  1.0000
  C   C400      1.0  0.31473077819147843  0.20972722830462975  0.012068046665423271  1.0000
  C   C401      1.0  0.2846333717628318  0.206571186636995  0.001141794170192556  1.0000
  C   C402      1.0  0.26909628482422326  0.17891620258939162  0.0038904775297017302  1.0000
  H   H253      1.0  0.3256980022061624  0.13670515377323297  0.03876853012415937  1.0000
  H   H254      1.0  0.35189882908687126  0.18599069966595805  0.03447548343379214  1.0000
  H   H255      1.0  0.2728355307599069  0.22697999992403997  0.99322870315841  1.0000
  H   H256      1.0  0.2448500177784523  0.17670822341859757  0.9965960764149908  1.0000
  C   C403      1.0  0.31690078835935576  0.26217160635259407  0.958008245849924  1.0000
  C   C404      1.0  0.3235952264512455  0.26954559593380056  0.9888766211725207  1.0000
  C   C405      1.0  0.32889853004592096  0.30104933633085634  0.995571223684727  1.0000
  C   C406      1.0  0.32635196751937734  0.32371434795611337  0.9730079337361798  1.0000
  C   C407      1.0  0.3190246464268978  0.31551533346670185  0.9422647132400899  1.0000
  C   C408      1.0  0.3142883977448165  0.28424302313925526  0.9351072740109903  1.0000
  C   C409      1.0  0.33084659832125024  0.24363967461303446  0.014549890489172546  1.0000
  C   C410      1.0  0.3682188571215143  0.24178703819140845  0.01049298498089346  1.0000
  C   C411      1.0  0.38855656927697485  0.26334382026691483  0.024307244133065398  1.0000
  C   C412      1.0  0.41990230747857205  0.26308738222621725  0.01728676678957708  1.0000
  C   C413      1.0  0.43104964553844133  0.24296988746166184  0.9949100283748794  1.0000
  C   C414      1.0  0.4112109928593259  0.22165571663591183  0.9809328318070667  1.0000
  C   C415      1.0  0.38031061900894103  0.2220116722097532  0.9882154258626732  1.0000
  C   C416      1.0  0.29287812135038543  0.2703068276245464  0.05360900729889242  1.0000
  C   C417      1.0  0.2816485525955811  0.2755805670748487  0.0837455810981971  1.0000
  C   C418      1.0  0.2935431866999995  0.26031889898443944  0.1091172981253219  1.0000
  C   C419      1.0  0.321704639168542  0.24429784818248787  0.1044258812607715  1.0000
  C   C420      1.0  0.335203364521553  0.24205859053701356  0.0755991825985112  1.0000
  C   C421      1.0  0.3203533250246764  0.2531939310408136  0.04946425727087668  1.0000
  C   C422      1.0  0.27605621531040503  0.2606082928777985  0.14235889232790705  1.0000
  C   C423      1.0  0.3399849006756845  0.32490329765843945  0.19016685534761565  1.0000
  C   C424      1.0  0.314733406743669  0.33671936220484133  0.17452675257553624  1.0000
  C   C425      1.0  0.29420358425617554  0.316605534891424  0.15984892512046706  1.0000
  C   C426      1.0  0.29819099806552035  0.2841105591920208  0.16128348280165414  1.0000
  C   C427      1.0  0.3249286708356705  0.2734348122448282  0.17707424364790597  1.0000
  C   C428      1.0  0.34476553746270533  0.2935701364495653  0.19130151372755044  1.0000
  C   C429      1.0  0.2726532842835429  0.22623951030950393  0.15422427830430327  1.0000
  C   C430      1.0  0.2673361749328261  0.2012413596216397  0.13342354613886379  1.0000
  C   C431      1.0  0.26092829006810725  0.1717025480568645  0.1448166497510832  1.0000
  C   C432      1.0  0.26355299159647444  0.16592381585656296  0.17635991657208855  1.0000
  C   C433      1.0  0.2717242623740165  0.18954194421963497  0.19685697117736234  1.0000
  C   C434      1.0  0.2741922415813658  0.21945121625513492  0.18642921271752033  1.0000
  C   C435      1.0  0.2268905962314514  0.28218027291501807  0.17007738042262643  1.0000
  C   C436      1.0  0.1956469155666193  0.28806070295383873  0.1725001889508535  1.0000
  C   C437      1.0  0.17578054203725546  0.27982306599736767  0.1484182750602956  1.0000
  C   C438      1.0  0.18790832313372086  0.2662258161859893  0.1214495352187069  1.0000
  C   C439      1.0  0.21905306240269987  0.260590631346087  0.11904727097332153  1.0000
  C   C440      1.0  0.23959640290262174  0.26893062211318036  0.14334478176312615  1.0000
  H   H257      1.0  0.3155505650618225  0.2376137461763756  0.950593412732348  1.0000
  H   H258      1.0  0.33618206490562613  0.3069079409525931  0.019563167784909297  1.0000
  H   H259      1.0  0.33295597355792766  0.34697974011637617  0.9799717371959669  1.0000
  H   H260      1.0  0.3087087928297948  0.27655547156112414  0.9114530118011944  1.0000
  H   H261      1.0  0.38127919238214336  0.2799688884588998  0.041793498666712114  1.0000
  H   H262      1.0  0.43488959441052205  0.280378899655135  0.028113839988330502  1.0000
  H   H263      1.0  0.41928812577041014  0.20534670370031788  0.9635528408053599  1.0000
  H   H264      1.0  0.3648043691365186  0.20662159374584158  0.9752276608478107  1.0000
  H   H265      1.0  0.2799614324696247  0.28123690337086527  0.03507292062447598  1.0000
  H   H266      1.0  0.2606008288146981  0.2896064986513671  0.08545028429169331  1.0000
  H   H267      1.0  0.3319960686715882  0.2333248546801626  0.12445679317260276  1.0000
  H   H268      1.0  0.3559242685349573  0.22827905295821718  0.07318274988220054  1.0000
  H   H269      1.0  0.31056564110159895  0.3616463637988642  0.17518440576765243  1.0000
  H   H270      1.0  0.27500525806181514  0.32510494995187594  0.14594564074264788  1.0000
  H   H271      1.0  0.3314617655772904  0.24900438367776737  0.17686218886639057  1.0000
  H   H272      1.0  0.36442856192033635  0.2846366959159612  0.2037015233401948  1.0000
  H   H273      1.0  0.264685239744576  0.20494010020371548  0.10859778752472739  1.0000
  H   H274      1.0  0.25506806409521016  0.15349125961851426  0.12920488392085439  1.0000
  H   H275      1.0  0.27235264425730393  0.18594571097994156  0.22249411089315446  1.0000
  H   H276      1.0  0.2772478281356661  0.23720456686858665  0.20458067696110996  1.0000
  H   H277      1.0  0.24147820748797116  0.28646780515041065  0.19024997704371077  1.0000
  H   H278      1.0  0.18551132996133737  0.298456440423963  0.1937347124677894  1.0000
  H   H279      1.0  0.17184032473202487  0.2587842592772363  0.10318519549007901  1.0000
  H   H280      1.0  0.22861135856986833  0.2488739769456723  0.09857312206271032  1.0000
  C   C441      1.0  0.945507061085897  0.3269999760936502  0.19277975752742388  1.0000
  C   C442      1.0  0.950470765707702  0.3588120155073414  0.1894258443182222  1.0000
  C   C443      1.0  0.9504806461269708  0.37831255521610385  0.21473640077918613  1.0000
  C   C444      1.0  0.944168406701814  0.36819394881755124  0.2445596152298595  1.0000
  C   C445      1.0  0.940376942452248  0.3360326060147965  0.248500811558915  1.0000
  C   C446      1.0  0.9407254626704775  0.31610832981907117  0.22304904267106224  1.0000
  H   H281      1.0  0.9551168086195906  0.3697437726699577  0.16701037874966218  1.0000
  H   H282      1.0  0.9569039841941793  0.40224555784097243  0.21038148509911173  1.0000
  H   H283      1.0  0.9368272956152496  0.3259225195098041  0.27194018529301034  1.0000
  H   H284      1.0  0.938905519186773  0.2919999599854444  0.22787222631521797  1.0000
  C   C447      1.0  0.8964081614752776  0.37684730645449616  0.2988933398165812  1.0000
  C   C448      1.0  0.9274337409543806  0.38522696368099024  0.30329501145070914  1.0000
  C   C449      1.0  0.9360189711612067  0.3946794540240372  0.33330383287050397  1.0000
  C   C450      1.0  0.9144148114938044  0.396135904223628  0.3572414644988059  1.0000
  C   C451      1.0  0.8844991848009315  0.38753584240235994  0.3522258257912481  1.0000
  C   C452      1.0  0.8753066872490886  0.37615399919367176  0.32305294415604624  1.0000
  C   C453      1.0  0.9493619476476137  0.39101573155418173  0.27416935805192494  1.0000
  C   C454      1.0  0.9398960008070723  0.4259200723152986  0.26803913296490983  1.0000
  C   C455      1.0  0.953769331506624  0.45006468319783893  0.28525854796279654  1.0000
  C   C456      1.0  0.9426906481408043  0.47976909332797146  0.2836504265127745  1.0000
  C   C457      1.0  0.9180087747412354  0.4866402630026579  0.2642915724051668  1.0000
  C   C458      1.0  0.9041870516001241  0.46306186121506726  0.24772862989348593  1.0000
  C   C459      1.0  0.9146078526981464  0.4331556968457443  0.24947607464094013  1.0000
  C   C460      1.0  0.9945284474282512  0.358553270216308  0.2977480550834524  1.0000
  C   C461      1.0  0.02425519112385275  0.34763881876441216  0.29659568611486103  1.0000
  C   C462      1.0  0.045252693062193164  0.35883465411401233  0.2747219284180118  1.0000
  C   C463      1.0  0.03645202778327494  0.3841558718203131  0.25697355717224707  1.0000
  C   C464      1.0  0.007399234026424146  0.39712512679923984  0.26050150643264786  1.0000
  C   C465      1.0  0.9851425200626557  0.3839294062366333  0.2798816132466435  1.0000
  C   C466      1.0  0.0786707547060007  0.3431837055023474  0.2716875142281758  1.0000
  C   C467      1.0  0.13742272666974123  0.4022771399677727  0.33064016033654675  1.0000
  C   C468      1.0  0.1231373314168495  0.3763582845733911  0.3428297681559504  1.0000
  C   C469      1.0  0.10314828271666639  0.3594006038978597  0.32445798418947225  1.0000
  C   C470      1.0  0.09889947866662957  0.3662005834486138  0.29313621779726584  1.0000
  C   C471      1.0  0.10952959321730668  0.3951684788488716  0.2830718806166579  1.0000
  C   C472      1.0  0.12826067453025447  0.41319010528241523  0.3011602951646299  1.0000
  C   C473      1.0  0.08909182109097526  0.3430986153467178  0.2358115289982123  1.0000
  C   C474      1.0  0.06896757548420943  0.33304347092558584  0.21204250217392157  1.0000
  C   C475      1.0  0.0796602454380981  0.3261618997455702  0.18142325579842816  1.0000
  C   C476      1.0  0.11123036181588943  0.3287317761890505  0.17541180972600356  1.0000
  C   C477      1.0  0.1309261233636858  0.3399590638651288  0.19848445620431562  1.0000
  C   C478      1.0  0.12008761026649933  0.34545283010343036  0.22843872901104803  1.0000
  C   C479      1.0  0.11126536837585503  0.2940870168741485  0.2863613272831494  1.0000
  C   C480      1.0  0.11393406102630814  0.26292427110806116  0.29354474204227876  1.0000
  C   C481      1.0  0.08880212689218514  0.2430927763033541  0.2911998601041409  1.0000
  C   C482      1.0  0.06121556631705867  0.25554021369640006  0.2807293600903409  1.0000
  C   C483      1.0  0.05835833315191892  0.2863272320419356  0.2743039585257153  1.0000
  C   C484      1.0  0.08260842170898226  0.3068409544866867  0.2794990645316603  1.0000
  H   H285      1.0  0.8884176090914976  0.3695354490839671  0.27624031621884026  1.0000
  H   H286      1.0  0.9589513046844967  0.4030866579445857  0.33765591485639335  1.0000
  H   H287      1.0  0.922129133250374  0.40543370513570204  0.38012826786681436  1.0000
  H   H288      1.0  0.8513745234594027  0.3700185104469432  0.3180396668603093  1.0000
  H   H289      1.0  0.9726370770660594  0.44572754956001986  0.3015381210559714  1.0000
  H   H290      1.0  0.9543761394712408  0.4982991416824403  0.29716714777551495  1.0000
  H   H291      1.0  0.8841485237858125  0.46729812659699616  0.23315659368799235  1.0000
  H   H292      1.0  0.9011983666236912  0.4146744356442423  0.23719437176052208  1.0000
  H   H293      1.0  0.9770048792087124  0.34641225326629665  0.3120700177771144  1.0000
  H   H294      1.0  0.02998725299774069  0.32969247933089296  0.3130736178009901  1.0000
  H   H295      1.0  0.05230620080012268  0.3942573640252594  0.23990999535453872  1.0000
  H   H296      1.0  0.002298139829503665  0.41608721990531927  0.2448359004129029  1.0000
  H   H297      1.0  0.12903594647132532  0.36976208828370966  0.3669279757880724  1.0000
  H   H298      1.0  0.0906828332248094  0.33963585810968744  0.33435229971897656  1.0000
  H   H299      1.0  0.10573549647292098  0.40283480638171526  0.2591059120465054  1.0000
  H   H300      1.0  0.13781228586197047  0.4341155508613222  0.2916013001136912  1.0000
  H   H301      1.0  0.04426125855429497  0.3290285799442878  0.21725980545098283  1.0000
  H   H302      1.0  0.0643905876433654  0.31713578899067324  0.1641806989646968  1.0000
  H   H303      1.0  0.15567311179823332  0.34218853605300326  0.1937687167980101  1.0000
  H   H304      1.0  0.1368606295132788  0.34943962981729115  0.2458772830259128  1.0000
  H   H305      1.0  0.131011416673525  0.30908211970841687  0.28762940543096416  1.0000
  H   H306      1.0  0.13653053928955983  0.252785403529831  0.3002794885554402  1.0000
  H   H307      1.0  0.04080320694317276  0.2412072226742539  0.27787441319889206  1.0000
  H   H308      1.0  0.03568478791955092  0.2946674243348228  0.2663885061021119  1.0000
  C   C485      1.0  0.13103325251083284  0.019130849098271785  0.3471983800245859  1.0000
  C   C486      1.0  0.1332930102210394  0.024173041903637893  0.37904437984102857  1.0000
  C   C487      1.0  0.1608579403112566  0.02106755558049378  0.39475249127354944  1.0000
  C   C488      1.0  0.18806816413042354  0.012451646908346437  0.3787090593624631  1.0000
  C   C489      1.0  0.1852965402624739  0.006521895158080548  0.3462845136499038  1.0000
  C   C490      1.0  0.15770392896491323  0.009251361804700986  0.3310510459933806  1.0000
  H   H309      1.0  0.11325805182079421  0.03183855618014175  0.39251387286735134  1.0000
  H   H310      1.0  0.16092862391100837  0.027523555141576894  0.4192403318561173  1.0000
  H   H311      1.0  0.20549077148162315  0.0013909244489167527  0.3320570074290772  1.0000
  H   H312      1.0  0.15715297634483033  0.00549738852501469  0.3054934858559522  1.0000
  C   C491      1.0  0.23668858420817512  0.9588519225312238  0.3733769914709068  1.0000
  C   C492      1.0  0.24679547707304936  0.9886151814598337  0.38315559782118774  1.0000
  C   C493      1.0  0.27826301971863376  0.9936897247628562  0.3860058218889948  1.0000
  C   C494      1.0  0.2993129235872618  0.9708176338574819  0.3766546310782939  1.0000
  C   C495      1.0  0.28933885459895103  0.9424275184091396  0.3657071258766753  1.0000
  C   C496      1.0  0.2576485403849206  0.9365057947925367  0.3638652246563857  1.0000
  C   C497      1.0  0.22128612135055412  0.013822152651173925  0.3946320592706844  1.0000
  C   C498      1.0  0.22070060355815135  0.008322964122849719  0.4310804507260301  1.0000
  C   C499      1.0  0.239255265628757  0.0245438587749347  0.45204742628365985  1.0000
  C   C500      1.0  0.23691581566465855  0.020201975955091545  0.48342822797138835  1.0000
  C   C501      1.0  0.2158267884005265  0.9991369550599222  0.4950510969537798  1.0000
  C   C502      1.0  0.1995876787853596  0.9796953118550072  0.4745847407021775  1.0000
  C   C503      1.0  0.20278664784001224  0.9841780498337958  0.443041001598808  1.0000
  C   C504      1.0  0.24769437117859114  0.05616468093220018  0.3594659144340787  1.0000
  C   C505      1.0  0.24715824430514222  0.08579005546368354  0.3470378040207658  1.0000
  C   C506      1.0  0.22673181899396042  0.10815991126539805  0.35815296946166714  1.0000
  C   C507      1.0  0.21308539510543878  0.10287203180803574  0.3869055197927517  1.0000
  C   C508      1.0  0.2149312832603641  0.07389302814737776  0.4006064311775211  1.0000
  C   C509      1.0  0.2301261956371199  0.04898959092166279  0.3859963762417113  1.0000
  C   C510      1.0  0.22102243576148553  0.1396719478550428  0.3392498678354901  1.0000
  C   C511      1.0  0.2921663253896873  0.19972927911772823  0.38241411450943014  1.0000
  C   C512      1.0  0.29653385244988645  0.1868476630917985  0.3527335293327382  1.0000
  C   C513      1.0  0.27459006066022823  0.16754780885845214  0.3401377586801425  1.0000
  C   C514      1.0  0.24699989718591864  0.1607001307214005  0.3554585985740384  1.0000
  C   C515      1.0  0.2439584394957293  0.17311737009129344  0.3863293353084559  1.0000
  C   C516      1.0  0.2663835378969694  0.19112574305689942  0.3996382523309586  1.0000
  C   C517      1.0  0.18764314748450014  0.15508545710402755  0.3429549229824572  1.0000
  C   C518      1.0  0.16156166577722714  0.13676720135250603  0.33869257464576147  1.0000
  C   C519      1.0  0.13290705895522384  0.1502803188757495  0.3350512776179582  1.0000
  C   C520      1.0  0.12876003230577432  0.18187066279085942  0.33542674209747875  1.0000
  C   C521      1.0  0.15419689897105146  0.20024077669341162  0.3412051168231821  1.0000
  C   C522      1.0  0.1835133939434491  0.18729446326725466  0.34385462088621405  1.0000
  C   C523      1.0  0.22485763756248014  0.16273406821324865  0.2829538100256137  1.0000
  C   C524      1.0  0.22324993663106066  0.16140298870245604  0.2505339871366962  1.0000
  C   C525      1.0  0.21891764494044094  0.13362807764637474  0.23611119215828252  1.0000
  C   C526      1.0  0.21373306141823856  0.10747379778146635  0.2535707627383531  1.0000
  C   C527      1.0  0.21324800386730572  0.1095489466473654  0.2858937677426144  1.0000
  C   C528      1.0  0.2207979407152142  0.137288647593286  0.30175537094349275  1.0000
  H   H313      1.0  0.21274629460926103  0.9531961595523857  0.3732872578217132  1.0000
  H   H314      1.0  0.2871263846668037  0.014889793281114061  0.3967620527331218  1.0000
  H   H315      1.0  0.3237140442687964  0.9756833889156002  0.3778778424015118  1.0000
  H   H316      1.0  0.24879496396521117  0.9140651712924437  0.3562449487103928  1.0000
  H   H317      1.0  0.25627249666774155  0.04165477805526036  0.44427365856930945  1.0000
  H   H318      1.0  0.24995610088536235  0.03528764774007864  0.49888130692725374  1.0000
  H   H319      1.0  0.18453217064145294  0.9612726394871004  0.48297955972542034  1.0000
  H   H320      1.0  0.1892484733151222  0.9687891413066384  0.4277366915876583  1.0000
  H   H321      1.0  0.2613578890965809  0.0387176395266795  0.34772261344882216  1.0000
  H   H322      1.0  0.26179169048508255  0.0895601415569348  0.32630933105704535  1.0000
  H   H323      1.0  0.1985420908589978  0.1216181161593732  0.3971398786244633  1.0000
  H   H324      1.0  0.2019525117632667  0.07004993685069756  0.4217174528562247  1.0000
  H   H325      1.0  0.31724978089379047  0.19206557672447316  0.3390963760671326  1.0000
  H   H326      1.0  0.27886042576754494  0.15836947861466533  0.3167952028307034  1.0000
  H   H327      1.0  0.22330507086059553  0.16964107569449224  0.40083312671232596  1.0000
  H   H328      1.0  0.2634473130606228  0.1996842459416635  0.4234389220736492  1.0000
  H   H329      1.0  0.16319623707037298  0.1118426198603861  0.3353747910374193  1.0000
  H   H330      1.0  0.11356236319312106  0.13518744792605916  0.32905093018109177  1.0000
  H   H331      1.0  0.15166040533836492  0.2254049542331812  0.34269989050580174  1.0000
  H   H332      1.0  0.2028617800626019  0.2030583111854503  0.34637897012273916  1.0000
  H   H333      1.0  0.22732745474052693  0.1856944607214271  0.29319525309278793  1.0000
  H   H334      1.0  0.2251708851584907  0.18277155397907272  0.23746593411992373  1.0000
  H   H335      1.0  0.2080204537155094  0.08626407676706493  0.2409419323202651  1.0000
  H   H336      1.0  0.20649509390760518  0.0884220441162157  0.29859580192714985  1.0000
  C   C529      1.0  0.12612651642722789  0.15824610474386183  0.8450005217496956  1.0000
  C   C530      1.0  0.10723634395727513  0.17905633419237613  0.8609353287170214  1.0000
  C   C531      1.0  0.09125979963806059  0.2014268545235922  0.8448989810413977  1.0000
  C   C532      1.0  0.09456956438438693  0.20408675524203151  0.812564168978032  1.0000
  C   C533      1.0  0.11003092485256055  0.18025647355428556  0.7967757695436011  1.0000
  C   C534      1.0  0.12735326512216563  0.15847591401667055  0.8120777181429297  1.0000
  H   H337      1.0  0.10627915610610648  0.17748207926932646  0.8864385763825694  1.0000
  H   H338      1.0  0.07757036076925669  0.21761179424846686  0.8585361343070033  1.0000
  H   H339      1.0  0.11103578500362683  0.1785717463699676  0.7706443863336978  1.0000
  H   H340      1.0  0.14288279995031508  0.14321174725548474  0.7992033008954698  1.0000
  C   C535      1.0  0.12578298765370263  0.23656793241911617  0.754161731823927  1.0000
  C   C536      1.0  0.09350086379039314  0.23748009968869171  0.7590829140586494  1.0000
  C   C537      1.0  0.07504468226856131  0.2465052462282206  0.7337119054550708  1.0000
  C   C538      1.0  0.0882047951944364  0.2554143814242425  0.7060975556216524  1.0000
  C   C539      1.0  0.11979163231640633  0.25433811560066055  0.7015258623364208  1.0000
  C   C540      1.0  0.13842208013058271  0.24388972313627502  0.7254800238474689  1.0000
  C   C541      1.0  0.07915751135479127  0.23215206707621233  0.793802752061108  1.0000
  C   C542      1.0  0.08535073528593289  0.26547130077115855  0.809385708667122  1.0000
  C   C543      1.0  0.06713403992894382  0.2911447814807403  0.8016945903665026  1.0000
  C   C544      1.0  0.07487344150088655  0.3206281450875912  0.8112394169465159  1.0000
  C   C545      1.0  0.10224888393420935  0.32571296810561157  0.8277905523990925  1.0000
  C   C546      1.0  0.11916291124146196  0.3009823832508909  0.8374983163947469  1.0000
  C   C547      1.0  0.11174698569484226  0.27162706118187685  0.8281707397022547  1.0000
  C   C548      1.0  0.038160040741991946  0.1922589168420367  0.7740235666493829  1.0000
  C   C549      1.0  0.009388491670867173  0.18031192676924035  0.7703987995043258  1.0000
  C   C550      1.0  0.98406833307633  0.19574437820153887  0.7827962115639673  1.0000
  C   C551      1.0  0.9888196412811737  0.2218572629346636  0.8013144030633402  1.0000
  C   C552      1.0  0.018756740995966314  0.2331614466812443  0.806594519894837  1.0000
  C   C553      1.0  0.04412960085937904  0.21934055442428696  0.7918333346024907  1.0000
  C   C554      1.0  0.9497726204457271  0.186676798536032  0.7722855675492122  1.0000
  C   C555      1.0  0.9633623703359975  0.23436498376545817  0.6827644454194969  1.0000
  C   C556      1.0  0.9672604367318859  0.2028730231751756  0.6845685640506523  1.0000
  C   C557      1.0  0.9610379515808919  0.1870148113985326  0.7118782917591766  1.0000
  C   C558      1.0  0.9503460124510746  0.20293523273261216  0.7385504382760623  1.0000
  C   C559      1.0  0.9443192394207789  0.234629172348534  0.7359009342130304  1.0000
  C   C560      1.0  0.9512541326606907  0.2503399354407157  0.7085463396799092  1.0000
  C   C561      1.0  0.9224690851407513  0.1967285086803751  0.7957343869305912  1.0000
  C   C562      1.0  0.9265780015219903  0.19109752857969803  0.8273300770940202  1.0000
  C   C563      1.0  0.9017712225191183  0.19360953909227988  0.8480396587631733  1.0000
  C   C564      1.0  0.8728181476106189  0.2017557825600263  0.8371771643871067  1.0000
  C   C565      1.0  0.8690641577615932  0.20737140284453592  0.8055106318690513  1.0000
  C   C566      1.0  0.8929480225031533  0.20425094919501596  0.7849262050264046  1.0000
  C   C567      1.0  0.9224728805412975  0.1383838936289742  0.7496632423051428  1.0000
  C   C568      1.0  0.9155778410136287  0.10728328729313821  0.7492476338246672  1.0000
  C   C569      1.0  0.9284556362504709  0.08775068744846662  0.7711213915215163  1.0000
  C   C570      1.0  0.9507288744651258  0.09883549556178048  0.7918900084861917  1.0000
  C   C571      1.0  0.9573166159592423  0.12963300694931762  0.7922631115538916  1.0000
  C   C572      1.0  0.9440268215727016  0.15037391723271787  0.7707246743356079  1.0000
  H   H341      1.0  0.1415307553711711  0.23135242863596756  0.7733977925168486  1.0000
  H   H342      1.0  0.050171695568733285  0.24975040488963762  0.7368525831768467  1.0000
  H   H343      1.0  0.07271873621280825  0.262487255206507  0.6870976361108192  1.0000
  H   H344      1.0  0.16368528038561994  0.24454504803264107  0.721649813873995  1.0000
  H   H345      1.0  0.04756585651290581  0.28803391998505695  0.7858471556365495  1.0000
  H   H346      1.0  0.06053028699056994  0.33973105859343045  0.8042213010148486  1.0000
  H   H347      1.0  0.1405810438427111  0.3046021367925421  0.8505876221179073  1.0000
  H   H348      1.0  0.1280823025910972  0.2532671939954937  0.8340246796062264  1.0000
  H   H349      1.0  0.056758000741623925  0.18130376885435076  0.7610759456354755  1.0000
  H   H350      1.0  0.005763953105277331  0.15985111384188674  0.7555006523263682  1.0000
  H   H351      1.0  0.9695951137481513  0.23484244363705342  0.8111945501219192  1.0000
  H   H352      1.0  0.020337876482987457  0.25297439067685945  0.8225765550985804  1.0000
  H   H353      1.0  0.9759374035838561  0.18892074892347377  0.6655780901871026  1.0000
  H   H354      1.0  0.9674976139633559  0.16285252458370286  0.7120672047048473  1.0000
  H   H355      1.0  0.9387783249614955  0.24848226830581954  0.7566553827067805  1.0000
  H   H356      1.0  0.948763164849133  0.27461817717872006  0.7076985928362118  1.0000
  H   H357      1.0  0.9485399334748957  0.18321975670995638  0.8371181290915846  1.0000
  H   H358      1.0  0.9074875366557057  0.19076417722242978  0.8725511134639502  1.0000
  H   H359      1.0  0.8457724664543415  0.21125483318750085  0.7961311041164996  1.0000
  H   H360      1.0  0.8893981437438458  0.2063199750772652  0.7599259380787049  1.0000
  H   H361      1.0  0.9108850513724889  0.15330792464818555  0.7319550150603331  1.0000
  H   H362      1.0  0.8971268775220551  0.0983652626603224  0.7340732014636662  1.0000
  H   H363      1.0  0.9610893039710741  0.0838224274739871  0.8093337576070625  1.0000
  H   H364      1.0  0.9728882622854362  0.13787588954228636  0.8105900286957729  1.0000
  C   C573      1.0  0.30334173838299217  0.3957058644044665  0.9026473071211176  1.0000
  C   C574      1.0  0.3160421156782267  0.40985356154131025  0.8777013526452984  1.0000
  C   C575      1.0  0.29765253702648997  0.4278756652067013  0.8580662133546473  1.0000
  C   C576      1.0  0.26593678002581306  0.43118100356275185  0.8626638821699085  1.0000
  C   C577      1.0  0.25391058059413096  0.4179980837463289  0.8904765905962811  1.0000
  C   C578      1.0  0.2723546598265809  0.3998360645477024  0.9096205562281885  1.0000
  H   H365      1.0  0.34069241401096734  0.40690304617139195  0.8713491548471203  1.0000
  H   H366      1.0  0.30866037304698224  0.43952011466627966  0.8380107427598786  1.0000
  H   H367      1.0  0.22900635906780148  0.42087718783035544  0.8954190255373915  1.0000
  H   H368      1.0  0.26223817454702786  0.3883294219717624  0.9296878338820612  1.0000
  C   C579      1.0  0.21646600950833875  0.3961494776642841  0.8268648789653059  1.0000
  C   C580      1.0  0.21351065954244586  0.4277320361584922  0.8332501365289764  1.0000
  C   C581      1.0  0.1840181680618496  0.4405966694752139  0.8292664347871451  1.0000
  C   C582      1.0  0.15910224145861906  0.42301632081002477  0.8212706943616315  1.0000
  C   C583      1.0  0.1625130405359268  0.39126574941390846  0.8163991017751476  1.0000
  C   C584      1.0  0.19141614233247278  0.3781615500482522  0.8187085625359722  1.0000
  C   C585      1.0  0.24331955014868048  0.4488871685292639  0.8389057178399938  1.0000
  C   C586      1.0  0.2543359672565241  0.4545293660321453  0.8035341301749713  1.0000
  C   C587      1.0  0.24256727035653183  0.4788216959414534  0.7855708704535062  1.0000
  C   C588      1.0  0.2503094208453513  0.48262189912743225  0.7546694353654171  1.0000
  C   C589      1.0  0.2715324772555408  0.4628712585779689  0.7409024044496628  1.0000
  C   C590      1.0  0.2830773764829194  0.4381003323486163  0.757337830723016  1.0000
  C   C591      1.0  0.2735738241992233  0.4339988789950651  0.7879677034517033  1.0000
  C   C592      1.0  0.21553145667444457  0.4855532719231929  0.8805917207140604  1.0000
  C   C593      1.0  0.21010887775981396  0.5148325184150896  0.8943020777461134  1.0000
  C   C594      1.0  0.22745396881923008  0.5404063281222051  0.8861811824940931  1.0000
  C   C595      1.0  0.25314922840697685  0.5351841084315234  0.8666404996762773  1.0000
  C   C596      1.0  0.25790177171474465  0.5062762513109925  0.8529632024097167  1.0000
  C   C597      1.0  0.23828291844172333  0.4809322699299863  0.8581819225338706  1.0000
  C   C598      1.0  0.2153985009420536  0.5744578047276055  0.8955559874230028  1.0000
  C   C599      1.0  0.14136259462205286  0.57129253566018  0.8247301626792267  1.0000
  C   C600      1.0  0.13513196315595374  0.5634626023467578  0.855218350698661  1.0000
  C   C601      1.0  0.15751994457386745  0.5655326207273564  0.8778713742964019  1.0000
  C   C602      1.0  0.1870338623798049  0.5766553092739051  0.8705179378861689  1.0000
  C   C603      1.0  0.19327097203946028  0.5844606192261081  0.8393874458514542  1.0000
  C   C604      1.0  0.1702903426850904  0.5821559756738605  0.8168524928447575  1.0000
  C   C605      1.0  0.2403775951953933  0.6018207205594893  0.8923680814648093  1.0000
  C   C606      1.0  0.2699603433198038  0.5976434497205773  0.9052472215359111  1.0000
  C   C607      1.0  0.2911976457212454  0.6211130451353432  0.9072992884082594  1.0000
  C   C608      1.0  0.28366087049839034  0.650114729209509  0.8965997314478337  1.0000
  C   C609      1.0  0.2541597442185824  0.6555211645104583  0.8853995551813805  1.0000
  C   C610      1.0  0.2323626227326978  0.6319927553832907  0.8830452275959589  1.0000
  C   C611      1.0  0.18320108115886624  0.5982814831367872  0.9413555696890495  1.0000
  C   C612      1.0  0.17620497704353846  0.6025630127929579  0.9724648090173763  1.0000
  C   C613      1.0  0.19447602802387326  0.5886639115196942  0.9955263568601302  1.0000
  C   C614      1.0  0.21583922722490884  0.5667557981482964  0.9864372827615475  1.0000
  C   C615      1.0  0.2232077451282177  0.5624006496909055  0.9551910815476093  1.0000
  C   C616      1.0  0.20670918131169969  0.578337023801009  0.9318579713454538  1.0000
  H   H369      1.0  0.23842946255224895  0.3851633712559011  0.8305722955240938  1.0000
  H   H370      1.0  0.1817147001232448  0.46624582669139014  0.8292758804344286  1.0000
  H   H371      1.0  0.13673524722901623  0.4342182904425593  0.81945004584773  1.0000
  H   H372      1.0  0.19395594733729885  0.3540882323478556  0.813966847599637  1.0000
  H   H373      1.0  0.22613635150188308  0.49601396592943997  0.7962657045902901  1.0000
  H   H374      1.0  0.23995597658217716  0.5021865920587633  0.7420760261246422  1.0000
  H   H375      1.0  0.29733720673621483  0.4205291356455581  0.744789288306838  1.0000
  H   H376      1.0  0.28357958154908397  0.4133408292570408  0.7984263964063989  1.0000
  H   H377      1.0  0.20081364333573964  0.46615091688282195  0.8872816004026249  1.0000
  H   H378      1.0  0.19074789093097705  0.5172616110670823  0.9108744659050779  1.0000
  H   H379      1.0  0.26834843758670307  0.554115338842774  0.8602363508180396  1.0000
  H   H380      1.0  0.27872777503560553  0.5013675608799183  0.8400557253967644  1.0000
  H   H381      1.0  0.11234336974057905  0.5555023519786301  0.8618232195616737  1.0000
  H   H382      1.0  0.1505002821038728  0.5575984300235739  0.9006353842497244  1.0000
  H   H383      1.0  0.21680853478607093  0.5903006284113245  0.8331674871152456  1.0000
  H   H384      1.0  0.17615334483550218  0.5861966364247403  0.7925063369714425  1.0000
  H   H385      1.0  0.27638107504973375  0.5751176295748316  0.9153800396593247  1.0000
  H   H386      1.0  0.3144050189811442  0.6156432710456569  0.916449759214185  1.0000
  H   H387      1.0  0.2473858635086326  0.6791274699495913  0.8780272274765802  1.0000
  H   H388      1.0  0.20912624746420466  0.6395420643850364  0.8761687963735446  1.0000
  H   H389      1.0  0.16857242090494443  0.6117382226867549  0.9254609067226789  1.0000
  H   H390      1.0  0.15835305043508385  0.6191161792359836  0.9796741993065355  1.0000
  H   H391      1.0  0.22894980481300842  0.5536431433999993  0.0031962224543617967  1.0000
  H   H392      1.0  0.24238581243199236  0.5470982842561306  0.9482178324405386  1.0000
  C   C617      1.0  0.3419308413960581  0.27067678866735656  0.6903752757182062  1.0000
  C   C618      1.0  0.31761235971303065  0.2557521295434033  0.676058035848186  1.0000
  C   C619      1.0  0.2955199053823893  0.272748561624984  0.6600807234680844  1.0000
  C   C620      1.0  0.2970793691222137  0.30570102907012164  0.6594077210991324  1.0000
  C   C621      1.0  0.32098787359165115  0.31969902689243446  0.6754747671284277  1.0000
  C   C622      1.0  0.34408617843144695  0.3026363094075278  0.6893362545170173  1.0000
  H   H393      1.0  0.31609317546399757  0.23096420037958745  0.6754983812466365  1.0000
  H   H394      1.0  0.27589864778470563  0.26102613262821595  0.6488049820233629  1.0000
  H   H395      1.0  0.32500053564295767  0.34524542245980955  0.6759801092580969  1.0000
  H   H396      1.0  0.3632252157073186  0.3158293439742079  0.7003900232505756  1.0000
  C   C623      1.0  0.26562191575221866  0.36743140941603647  0.6805518025433285  1.0000
  C   C624      1.0  0.27004452865601275  0.3607676841563631  0.6492630959166145  1.0000
  C   C625      1.0  0.26806834362427395  0.3853467804208667  0.6279938596459116  1.0000
  C   C626      1.0  0.2637861636816638  0.41485194571681944  0.6386320198989943  1.0000
  C   C627      1.0  0.25852740258511797  0.4208355561785258  0.6698168244055895  1.0000
  C   C628      1.0  0.2585615747770082  0.3964864816303719  0.6902194225380278  1.0000
  C   C629      1.0  0.2732565668177838  0.32466193064367826  0.6383250363622794  1.0000
  C   C630      1.0  0.23882059126167382  0.3134820267088657  0.6420230072737838  1.0000
  C   C631      1.0  0.21534687814601514  0.3212201184707566  0.6210158877151991  1.0000
  C   C632      1.0  0.18427737586390258  0.3161548270956048  0.628230000828  1.0000
  C   C633      1.0  0.175991451298661  0.302879487727541  0.656647230680519  1.0000
  C   C634      1.0  0.1991022662855647  0.2944446159167181  0.6775150269416715  1.0000
  C   C635      1.0  0.2295699322767024  0.29996741634282587  0.6705606691291679  1.0000
  C   C636      1.0  0.3173045245173723  0.3382083729751023  0.6001268387476586  1.0000
  C   C637      1.0  0.3287871468731911  0.34137767844070727  0.5701510770933561  1.0000
  C   C638      1.0  0.3132960148829144  0.3302268769749118  0.5434954604592166  1.0000
  C   C639      1.0  0.28732302080747635  0.3127032444037313  0.5491746558884428  1.0000
  C   C640      1.0  0.2757063727234357  0.3082562181187922  0.5787796758868664  1.0000
  C   C641      1.0  0.289513734597624  0.32248804319943586  0.6049677329804709  1.0000
  C   C642      1.0  0.32504290842047323  0.3399800970213238  0.5092502662327557  1.0000
  C   C643      1.0  0.2785687393214375  0.429222308277783  0.5196026956555115  1.0000
  C   C644      1.0  0.3096979909690253  0.42642621042089046  0.5271426835995944  1.0000
  C   C645      1.0  0.3252485459537206  0.3997399490275633  0.5207432575649985  1.0000
  C   C646      1.0  0.30978418573881855  0.373710787326318  0.5079349598485232  1.0000
  C   C647      1.0  0.2785297493283163  0.3770646109456531  0.5003878876689778  1.0000
  C   C648      1.0  0.2630566729596707  0.4043605853220273  0.5071013814757512  1.0000
  C   C649      1.0  0.31673122740504644  0.3164733157285198  0.48102431073772833  1.0000
  C   C650      1.0  0.3136184354965513  0.28473859335389434  0.4844105752888761  1.0000
  C   C651      1.0  0.3081628745831863  0.26612565595417886  0.45867590926488144  1.0000
  C   C652      1.0  0.30818431668714363  0.2780217638250631  0.42850415042944556  1.0000
  C   C653      1.0  0.31218087478066653  0.30931548920987384  0.42487702187256765  1.0000
  C   C654      1.0  0.3158099502827756  0.3282726413193299  0.45073448131124827  1.0000
  C   C655      1.0  0.37853299563176057  0.3582342598099066  0.4861981640372854  1.0000
  C   C656      1.0  0.4093192690758808  0.3534797349850454  0.48111168297510104  1.0000
  C   C657      1.0  0.42427185888103536  0.3284235680843869  0.49371453786315933  1.0000
  C   C658      1.0  0.40898944336192833  0.31028192313232905  0.5150569779003097  1.0000
  C   C659      1.0  0.37770792352378285  0.3149855563471063  0.5206960293285808  1.0000
  C   C660      1.0  0.36177749212079274  0.3388312656360145  0.5061662623946811  1.0000
  H   H397      1.0  0.2657404320842518  0.348592655526763  0.6974382584744705  1.0000
  H   H398      1.0  0.27027765168602136  0.3811324622944316  0.6028778835189885  1.0000
  H   H399      1.0  0.2646832881496094  0.4330177600505985  0.6209049013596176  1.0000
  H   H400      1.0  0.2534078136846178  0.40129758690245587  0.7145065431158206  1.0000
  H   H401      1.0  0.2211766029414111  0.3337900630030751  0.5995884368524971  1.0000
  H   H402      1.0  0.165796924657554  0.3234774727528029  0.6122574112715401  1.0000
  H   H403      1.0  0.19377441581381954  0.28437418166996686  0.7001963874812631  1.0000
  H   H404      1.0  0.24559151486190187  0.29512268819350246  0.6892347138087193  1.0000
  H   H405      1.0  0.329036623801675  0.34938469520554194  0.619714749801892  1.0000
  H   H406      1.0  0.34989560192708025  0.35558679943382104  0.568705893058975  1.0000
  H   H407      1.0  0.2737086106389326  0.3034451260191188  0.5300661114338489  1.0000
  H   H408      1.0  0.2541787125944115  0.2937494182850551  0.5826051630366987  1.0000
  H   H409      1.0  0.3220663353750063  0.4453234499368048  0.5382247892750034  1.0000
  H   H410      1.0  0.34832226099394475  0.39811889151515445  0.5296623100124777  1.0000
  H   H411      1.0  0.26532030266325435  0.35694779429568935  0.4936980079804132  1.0000
  H   H412      1.0  0.23795253601729074  0.4054482396435385  0.5018212646442545  1.0000
  H   H413      1.0  0.31555038153025433  0.27294958812472675  0.5069998407674532  1.0000
  H   H414      1.0  0.30463696172086085  0.24147588360804953  0.46199369287322356  1.0000
  H   H415      1.0  0.3124307504085854  0.3206619655509884  0.40188159356079844  1.0000
  H   H416      1.0  0.32008796768343006  0.3523856022686324  0.44590303272571946  1.0000
  H   H417      1.0  0.3665564654187191  0.37501307079028284  0.47217373923305483  1.0000
  H   H418      1.0  0.4207533857016712  0.36728255297500484  0.46352624914497736  1.0000
  H   H419      1.0  0.4204288679054208  0.2910575325936989  0.526091855339301  1.0000
  H   H420      1.0  0.36622033245074737  0.29807105985887133  0.5341820522376498  1.0000
  C   C661      1.0  0.7414754987357877  0.21910896335027216  0.20203106061810142  1.0000
  C   C662      1.0  0.7578919034912768  0.1915401985467371  0.2036320978326608  1.0000
  C   C663      1.0  0.7482691817684853  0.16939533537770268  0.22497926069345286  1.0000
  C   C664      1.0  0.7226610395441891  0.1733492467468231  0.2448122862946941  1.0000
  C   C665      1.0  0.7057411518078421  0.20128459107050312  0.24131503538796473  1.0000
  C   C666      1.0  0.714458544652333  0.22334794177066397  0.21975983214575281  1.0000
  H   H421      1.0  0.778154243360166  0.1874619302088269  0.18949456140220994  1.0000
  H   H422      1.0  0.76154089986652  0.14770548325473337  0.22526333853550526  1.0000
  H   H423      1.0  0.6852606374089679  0.20708779712584272  0.2541918140472456  1.0000
  H   H424      1.0  0.699873371723989  0.24326485285144928  0.21860392105943002  1.0000
  C   C667      1.0  0.6658104849787398  0.17204622387711907  0.30273063402551786  1.0000
  C   C668      1.0  0.6759484216249707  0.1521300931429184  0.27823334779566644  1.0000
  C   C669      1.0  0.6522681602376674  0.14025203257397933  0.25912952616471424  1.0000
  C   C670      1.0  0.6211932484500312  0.14522031861598497  0.2652715583108337  1.0000
  C   C671      1.0  0.6127263518327665  0.16444545282963052  0.2895988228895815  1.0000
  C   C672      1.0  0.6351038665029719  0.1792568255780805  0.3080863160352829  1.0000
  C   C673      1.0  0.7122331057064517  0.1470083459091458  0.2705162539650173  1.0000
  C   C674      1.0  0.7366941794435649  0.14716726184478215  0.2993490922980119  1.0000
  C   C675      1.0  0.7277192362664591  0.14335549936263425  0.33056459515827846  1.0000
  C   C676      1.0  0.7483182043360215  0.13692722263372487  0.3539449335968517  1.0000
  C   C677      1.0  0.7795775253979198  0.13551676034025517  0.3477627574497772  1.0000
  C   C678      1.0  0.7899168130677963  0.14131472261198347  0.31731235201947705  1.0000
  C   C679      1.0  0.7685778364279852  0.14686315777938144  0.2939343749927247  1.0000
  C   C680      1.0  0.7154300517016744  0.105470129767222  0.22478042981813445  1.0000
  C   C681      1.0  0.713141324582212  0.07561147084993114  0.2122375547903266  1.0000
  C   C682      1.0  0.7097297821347637  0.050689788730729254  0.2319480231180639  1.0000
  C   C683      1.0  0.709413896092088  0.05668071042951113  0.2645513277054641  1.0000
  C   C684      1.0  0.7119605105629532  0.08636352077649785  0.27637727810445156  1.0000
  C   C685      1.0  0.714403918676883  0.1119187914494387  0.25671144046012895  1.0000
  C   C686      1.0  0.7042504921433227  0.016043549251140377  0.21930903862914605  1.0000
  C   C687      1.0  0.6051292528311487  0.02087842873950474  0.23860649602941073  1.0000
  C   C688      1.0  0.6175655180313401  0.032350058466995346  0.21148733425483174  1.0000
  C   C689      1.0  0.6484426512934364  0.029800431238537817  0.2053292445083302  1.0000
  C   C690      1.0  0.668206014146894  0.01442993674635451  0.22626127117101083  1.0000
  C   C691      1.0  0.6551216667023928  0.0018673515221134807  0.2530158309604454  1.0000
  C   C692      1.0  0.623986247795483  0.005175076660056899  0.2586265454468659  1.0000
  C   C693      1.0  0.7268089126682601  0.9915821171924947  0.23740926023622247  1.0000
  C   C694      1.0  0.7565829797078816  0.00198748942253113  0.24658806798399888  1.0000
  C   C695      1.0  0.7785743458883502  0.981542609747118  0.25788742354692923  1.0000
  C   C696      1.0  0.7717038766697786  0.9504770035454825  0.2611981229198087  1.0000
  C   C697      1.0  0.7422953115154979  0.940131576646305  0.25294735001763974  1.0000
  C   C698      1.0  0.7203358311573917  0.9603815116556621  0.24050743254522242  1.0000
  C   C699      1.0  0.6951932069838067  0.9848287786870957  0.1679936706318783  1.0000
  C   C700      1.0  0.7044862501111863  0.972357998114853  0.1396812874642066  1.0000
  C   C701      1.0  0.7321145167023275  0.9819617862987556  0.125827592734626  1.0000
  C   C702      1.0  0.7502618974723257  0.004276818947263505  0.14079823525548477  1.0000
  C   C703      1.0  0.740122094868032  0.017489685524298082  0.16885015469931297  1.0000
  C   C704      1.0  0.7124303792828812  0.007819690738222418  0.18336669772701578  1.0000
  H   H425      1.0  0.6827369993463567  0.1830248809454777  0.3171824743693284  1.0000
  H   H426      1.0  0.6566719088889197  0.1267381029843369  0.23775166495025066  1.0000
  H   H427      1.0  0.6035716192997065  0.1343779568800444  0.2498373706495354  1.0000
  H   H428      1.0  0.6285671132971526  0.19528366296196717  0.3266233988292229  1.0000
  H   H429      1.0  0.7035286843746464  0.1411782494578858  0.3365082687114437  1.0000
  H   H430      1.0  0.7398742619124953  0.13253084507038576  0.3778589511069448  1.0000
  H   H431      1.0  0.8142153541390699  0.13945708091803435  0.31213613730809914  1.0000
  H   H432      1.0  0.7784434435292795  0.14653436968356454  0.27084685161994104  1.0000
  H   H433      1.0  0.71538149853959  0.1243988556171251  0.20770529708250376  1.0000
  H   H434      1.0  0.7122521504156768  0.07350206027404096  0.18702121866101595  1.0000
  H   H435      1.0  0.7060264016932736  0.037118584105634664  0.2807458899730871  1.0000
  H   H436      1.0  0.70811053232635  0.09046788495324724  0.30138935211125567  1.0000
  H   H437      1.0  0.6031396935445547  0.04513472433670144  0.19480018148137226  1.0000
  H   H438      1.0  0.6579827125021385  0.04083969159798264  0.18444562678797768  1.0000
  H   H439      1.0  0.6690889205217485  0.9894691783945438  0.27031317254842124  1.0000
  H   H440      1.0  0.614548838100121  0.9957290496663753  0.28068921608938585  1.0000
  H   H441      1.0  0.7637782061585022  0.025860197377119754  0.2432820914347612  1.0000
  H   H442      1.0  0.8014936815227132  0.9898972320039224  0.2638688796892286  1.0000
  H   H443      1.0  0.7359982396569129  0.9162252869073494  0.2543925340520208  1.0000
  H   H444      1.0  0.6977490899323177  0.9514174197176617  0.23247532637766732  1.0000
  H   H445      1.0  0.6742724666042818  0.9758474361177704  0.17900233639965782  1.0000
  H   H446      1.0  0.6906221517147414  0.9541146648242902  0.12864522931930486  1.0000
  H   H447      1.0  0.7714281781972859  0.012132959964884948  0.1300108337753221  1.0000
  H   H448      1.0  0.7544430794173941  0.033916611155085624  0.18133021617268533  1.0000
  C   C705      1.0  0.8474072479418105  0.3513583436599687  0.41564390165291093  1.0000
  C   C706      1.0  0.8177136405219364  0.3522590618841806  0.4292267424466361  1.0000
  C   C707      1.0  0.8037968661579032  0.3256616554055267  0.4389628433841411  1.0000
  C   C708      1.0  0.8182302773297786  0.2971650035112552  0.43414792468135854  1.0000
  C   C709      1.0  0.8482362387965211  0.2969806785990227  0.4215615996760464  1.0000
  C   C710      1.0  0.8620318085565386  0.3235058231006103  0.4118349443858249  1.0000
  H   H449      1.0  0.8067927041456479  0.3745341045790155  0.4323272761674569  1.0000
  H   H450      1.0  0.781441767098255  0.3276442278490871  0.45016538106241527  1.0000
  H   H451      1.0  0.8614418949312292  0.2753555369233005  0.419837769046801  1.0000
  H   H452      1.0  0.8850711804634074  0.32243498255177516  0.4028119898182268  1.0000
  C   C711      1.0  0.81730070467433  0.23442026786745243  0.39536881975880017  1.0000
  C   C712      1.0  0.8089706872243866  0.2348221715572531  0.4264969503816941  1.0000
  C   C713      1.0  0.805490904826554  0.20581301089194307  0.4406205544824017  1.0000
  C   C714      1.0  0.8109738424285852  0.17843600671960141  0.42533985858946094  1.0000
  C   C715      1.0  0.8210184028977658  0.17929729535536945  0.3944502305604763  1.0000
  C   C716      1.0  0.8233836472055146  0.20717747407893364  0.3796111186780408  1.0000
  C   C717      1.0  0.801255840072911  0.2653869959423953  0.4457070355445861  1.0000
  C   C718      1.0  0.764527754248249  0.2657012222277209  0.4388164358512463  1.0000
  C   C719      1.0  0.7425606764669589  0.2514473898465899  0.4581020861924066  1.0000
  C   C720      1.0  0.7110822482097483  0.25274246999887773  0.45127996744187254  1.0000
  C   C721      1.0  0.7014399821451147  0.2661599429710768  0.42384508490684125  1.0000
  C   C722      1.0  0.7224291905423506  0.2782236096156284  0.4029395060565546  1.0000
  C   C723      1.0  0.7537228195240859  0.27862425886771985  0.41041101305783173  1.0000
  C   C724      1.0  0.8418684326854653  0.25175841112808456  0.4888925349249141  1.0000
  C   C725      1.0  0.8498680904411489  0.24658411428055663  0.5198530053085253  1.0000
  C   C726      1.0  0.8302485352633976  0.25573627793619674  0.5441495715336014  1.0000
  C   C727      1.0  0.8032794818643808  0.2716743149526166  0.5366095835895186  1.0000
  C   C728      1.0  0.7959154707960998  0.2773625929476238  0.5059584581544434  1.0000
  C   C729      1.0  0.8132552390538534  0.2643679843394051  0.4815627126328899  1.0000
  C   C730      1.0  0.8355402092557114  0.24375860433378468  0.5796226999069222  1.0000
  C   C731      1.0  0.7798324579936824  0.1584122132567503  0.5709232587587851  1.0000
  C   C732      1.0  0.8110599972895712  0.15901154730519781  0.563040866100674  1.0000
  C   C733      1.0  0.828228311463725  0.1851646000248555  0.5678368935088898  1.0000
  C   C734      1.0  0.8152518732980998  0.2122676237837493  0.5789638660088955  1.0000
  C   C735      1.0  0.783321710868289  0.21244561974707662  0.5845462435534654  1.0000
  C   C736      1.0  0.7657723550223677  0.18600671617768383  0.5811906773559891  1.0000
  C   C737      1.0  0.8252597241276141  0.2672190713950635  0.606880476555387  1.0000
  C   C738      1.0  0.8302200319224736  0.2993348764709835  0.6038177254237004  1.0000
  C   C739      1.0  0.823277549956259  0.3194735396785784  0.6279749683513445  1.0000
  C   C740      1.0  0.8130637040006636  0.30845592787374093  0.6562363450236851  1.0000
  C   C741      1.0  0.8103210960009737  0.27696051390252135  0.6600098811134578  1.0000
  C   C742      1.0  0.8166778964803089  0.2558121667231221  0.6359470946586492  1.0000
  C   C743      1.0  0.8833846743073541  0.2168307399333338  0.609834602743313  1.0000
  C   C744      1.0  0.9140011034635446  0.2155366942107636  0.6199414453366968  1.0000
  C   C745      1.0  0.9342435647120764  0.23928812650649997  0.6112301971294555  1.0000
  C   C746      1.0  0.9243114247664364  0.2631993363090838  0.5924357204470392  1.0000
  C   C747      1.0  0.8938218316482193  0.26349283540468554  0.5817975601939563  1.0000
  C   C748      1.0  0.872061108069984  0.24022219848499093  0.5901333439216772  1.0000
  H   H453      1.0  0.8179937239106175  0.257121824382087  0.38364913289175256  1.0000
  H   H454      1.0  0.7960898573935122  0.20427839102897324  0.4639536646845574  1.0000
  H   H455      1.0  0.8085242259527117  0.15662451933698857  0.43833706925160687  1.0000
  H   H456      1.0  0.8309799796573636  0.20738134237954708  0.35527204704018855  1.0000
  H   H457      1.0  0.7485706163945071  0.23931133767999319  0.4792556132838862  1.0000
  H   H458      1.0  0.6943609086760258  0.2420354136623101  0.4674698068858537  1.0000
  H   H459      1.0  0.7143615001273464  0.286984808934741  0.3800125586875911  1.0000
  H   H460      1.0  0.7695440711461996  0.2882461226242714  0.393722915719644  1.0000
  H   H461      1.0  0.857868918549319  0.24367080940911406  0.4701712620089451  1.0000
  H   H462      1.0  0.8709348021011429  0.23284299601376904  0.5247552962486806  1.0000
  H   H463      1.0  0.7873439744232265  0.27816933010651623  0.5552340386208313  1.0000
  H   H464      1.0  0.7745139488966044  0.2889799020585348  0.5006027761446783  1.0000
  H   H465      1.0  0.8228771507433191  0.13991581857176558  0.5508134756921365  1.0000
  H   H466      1.0  0.8514710208339488  0.18550411696890862  0.5595955662540043  1.0000
  H   H467      1.0  0.7722426421746065  0.2338003297442996  0.5922704216195772  1.0000
  H   H468      1.0  0.7405777179060842  0.1859315929524592  0.5839133851854684  1.0000
  H   H469      1.0  0.8396190222162296  0.30906429250752715  0.5821139893779548  1.0000
  H   H470      1.0  0.826737255708958  0.34446806608037744  0.6245863423883758  1.0000
  H   H471      1.0  0.8029204111620338  0.2671756105611789  0.6817702910429047  1.0000
  H   H472      1.0  0.8158464888173741  0.23060572779788652  0.640166937582569  1.0000
  H   H473      1.0  0.8669521404066282  0.19961287484547616  0.6172801342145605  1.0000
  H   H474      1.0  0.9206831359614629  0.19723070697771933  0.6360415511314844  1.0000
  H   H475      1.0  0.9408108946807534  0.28115715986504924  0.5862629899472481  1.0000
  H   H476      1.0  0.886479531320499  0.28214450526991913  0.5668852445450734  1.0000
  C   C749      1.0  0.615284165118799  0.39356061439429063  0.23650011668518212  1.0000
  C   C750      1.0  0.5974803416700508  0.3688346276845665  0.22555001393056057  1.0000
  C   C751      1.0  0.5860634507293313  0.3467376960385343  0.2456978157275256  1.0000
  C   C752      1.0  0.5914901055274138  0.3501917447837208  0.2779263642589515  1.0000
  C   C753      1.0  0.6073206348177642  0.3762325496846947  0.2884653452155571  1.0000
  C   C754      1.0  0.6192062247036705  0.39767722179488796  0.2681973475569091  1.0000
  H   H477      1.0  0.5945123378478854  0.36523835904695334  0.200892151696889  1.0000
  H   H478      1.0  0.5730622044175536  0.3272776217962743  0.2365898503343757  1.0000
  H   H479      1.0  0.6105014656265071  0.37943854066347943  0.3138221853482104  1.0000
  H   H480      1.0  0.6306191193385715  0.41868614295285356  0.2764599275181825  1.0000
  C   C755      1.0  0.6298043043651752  0.31980666472044245  0.33024108173881733  1.0000
  C   C756      1.0  0.5977338054395953  0.3219578206029212  0.33294017545008786  1.0000
  C   C757      1.0  0.5844809661750242  0.31736570913365975  0.3627553611005702  1.0000
  C   C758      1.0  0.6031256002897668  0.30891226100499514  0.38741086192242086  1.0000
  C   C759      1.0  0.634896937601445  0.3070464983592707  0.38427962984792857  1.0000
  C   C760      1.0  0.6482853674019388  0.31306492507446054  0.35525551715744236  1.0000
  C   C761      1.0  0.5767418381068317  0.32671131683813187  0.30240712060605673  1.0000
  C   C762      1.0  0.5752980577602992  0.29065759571206606  0.2925505876656866  1.0000
  C   C763      1.0  0.5540814629612539  0.27129542716152466  0.30735427837080886  1.0000
  C   C764      1.0  0.5511447826079013  0.2403366179950764  0.2995238367727573  1.0000
  C   C765      1.0  0.5708484114515698  0.2275772599696133  0.2779735924953692  1.0000
  C   C766      1.0  0.5948072181307232  0.2454355114632153  0.26571550373315994  1.0000
  C   C767      1.0  0.5963992531763869  0.2768356649726604  0.27231328836071006  1.0000
  C   C768      1.0  0.5397748288379609  0.36941244841856014  0.3279410666252762  1.0000
  C   C769      1.0  0.5105784793259965  0.38170084236404994  0.33405476182954513  1.0000
  C   C770      1.0  0.48439650026385717  0.36803862807245147  0.32198558601300664  1.0000
  C   C771      1.0  0.4879856586322426  0.3440941654931217  0.2999205539586658  1.0000
  C   C772      1.0  0.5171493991320576  0.3339626964899349  0.2925954544902834  1.0000
  C   C773      1.0  0.5433381226522829  0.343880946547649  0.30814062850716323  1.0000
  C   C774      1.0  0.4509245008770523  0.37863740313910976  0.3346569218438706  1.0000
  C   C775      1.0  0.45356543771830515  0.32313324050174314  0.42124280908022704  1.0000
  C   C776      1.0  0.46921352692836016  0.35110001349292547  0.4187444353737317  1.0000
  C   C777      1.0  0.4655702405843452  0.3694213350333874  0.3928657232286631  1.0000
  C   C778      1.0  0.4486508868916122  0.35968340691194706  0.36680990519702816  1.0000
  C   C779      1.0  0.43466023413291255  0.33013794742924524  0.3686966732419146  1.0000
  C   C780      1.0  0.4365206986792787  0.31289554048100937  0.39590722165396175  1.0000
  C   C781      1.0  0.42312803864849213  0.37611886454866644  0.3096920760734841  1.0000
  C   C782      1.0  0.4292744010953607  0.381590413107178  0.27806804896820453  1.0000
  C   C783      1.0  0.4066972227555965  0.3758603985272851  0.2551080418337487  1.0000
  C   C784      1.0  0.37686243222892685  0.36737027190231225  0.263717749332692  1.0000
  C   C785      1.0  0.3700083219655085  0.36474310207193816  0.29527801831880773  1.0000
  C   C786      1.0  0.3927068586544081  0.36871109967351456  0.31824274827690535  1.0000
  C   C787      1.0  0.4285419093280705  0.4270786969063429  0.36485465620933616  1.0000
  C   C788      1.0  0.42584603214867267  0.4582797025742139  0.3691028360751066  1.0000
  C   C789      1.0  0.44097747314278185  0.4783448770079963  0.3490662567749052  1.0000
  C   C790      1.0  0.4592152119832494  0.46718151460102275  0.32533642938684115  1.0000
  C   C791      1.0  0.4627026864647833  0.43569398547543375  0.3216502655344411  1.0000
  C   C792      1.0  0.44782796789413665  0.41477208919047265  0.34166559212825454  1.0000
  H   H481      1.0  0.6412361628853167  0.3210326267660833  0.307902125913254  1.0000
  H   H482      1.0  0.5595343888154718  0.31858090290376595  0.3662006609472401  1.0000
  H   H483      1.0  0.5920299610372618  0.30335367098170635  0.40939088315120986  1.0000
  H   H484      1.0  0.6731615799444449  0.31145248529259423  0.3507499434031956  1.0000
  H   H485      1.0  0.5374332265410169  0.28041458236479444  0.32431157665657745  1.0000
  H   H486      1.0  0.5333445534060313  0.22614998583297827  0.3107995782174787  1.0000
  H   H487      1.0  0.6123817669690496  0.23396737138662602  0.25092834291078386  1.0000
  H   H488      1.0  0.6159217836129942  0.290292060588808  0.2636846895671996  1.0000
  H   H489      1.0  0.5599332555330592  0.378763245546578  0.34068088339894587  1.0000
  H   H490      1.0  0.5088559205124245  0.40200932865282973  0.34959049019914146  1.0000
  H   H491      1.0  0.46835386896238773  0.3321178898077358  0.29071813209268055  1.0000
  H   H492      1.0  0.5184652685224718  0.31508238917733467  0.27603723480224424  1.0000
  H   H493      1.0  0.4849593012785218  0.3576603264634398  0.43786714829925094  1.0000
  H   H494      1.0  0.47791071403417734  0.39053559117356346  0.3920959029750548  1.0000
  H   H495      1.0  0.4252508462142951  0.3194794100151399  0.3475620374450021  1.0000
  H   H496      1.0  0.42644347375303004  0.290327453443189  0.39694624285515073  1.0000
  H   H497      1.0  0.45177473774694454  0.38931087718627266  0.2690096732232932  1.0000
  H   H498      1.0  0.4142910195855015  0.37791947169758794  0.23074630064241597  1.0000
  H   H499      1.0  0.34654749810870555  0.35889490460517287  0.3026290933172198  1.0000
  H   H500      1.0  0.3855301224258239  0.365308900836573  0.3422276081416249  1.0000
  H   H501      1.0  0.4149359351940157  0.41176052422613446  0.38009993092496375  1.0000
  H   H502      1.0  0.409704114303831  0.46707405300935423  0.38727626144863053  1.0000
  H   H503      1.0  0.4700854849764592  0.4829070008259607  0.3087120901678172  1.0000
  H   H504      1.0  0.47656358293311046  0.4276370789890496  0.301708142707075  1.0000
  C   C793      1.0  0.1293993321437144  0.8382406210595756  0.17090340227757167  1.0000
  C   C794      1.0  0.15563953591057472  0.848033109319066  0.154998112958007  1.0000
  C   C795      1.0  0.17420735812949134  0.8266964130566248  0.140579804662053  1.0000
  C   C796      1.0  0.1689542465234866  0.7953562952456966  0.1419711485069179  1.0000
  C   C797      1.0  0.1406187239663891  0.7859247121970901  0.155519040405694  1.0000
  C   C798      1.0  0.12149128205379903  0.8071623924030163  0.17108924538787526  1.0000
  H   H505      1.0  0.16270329460591731  0.8716803162746025  0.1570759192192029  1.0000
  H   H506      1.0  0.1960843726164852  0.835654596541763  0.13236067467828386  1.0000
  H   H507      1.0  0.13482064903674357  0.7613959764213689  0.15603170291200796  1.0000
  H   H508      1.0  0.10106466865864519  0.7983114813349662  0.1830767163554112  1.0000
  C   C799      1.0  0.18772944437760553  0.7329874254813455  0.1753296325946368  1.0000
  C   C800      1.0  0.19139160570222127  0.737512561990887  0.14282054833888988  1.0000
  C   C801      1.0  0.1995404852701899  0.7116431345601572  0.12533878048770297  1.0000
  C   C802      1.0  0.20668667737229512  0.6839937303566312  0.14017316954649675  1.0000
  C   C803      1.0  0.20432436070992332  0.6806842049821971  0.1718914169834296  1.0000
  C   C804      1.0  0.1926861456687358  0.7051046114735636  0.18965773495903301  1.0000
  C   C805      1.0  0.19311071795720636  0.7709003650807493  0.1284303408436044  1.0000
  C   C806      1.0  0.22886651070445121  0.7783295867715077  0.13680130960745637  1.0000
  C   C807      1.0  0.25373240675728637  0.7661949317666339  0.11957504651528912  1.0000
  C   C808      1.0  0.28376773340800143  0.7694053062581043  0.12928753333458534  1.0000
  C   C809      1.0  0.2897791840303233  0.7844730363103637  0.15727994520052727  1.0000
  C   C810      1.0  0.2657778328811458  0.7956789892052077  0.1757839682289749  1.0000
  C   C811      1.0  0.23589789054653743  0.7931150190145737  0.16530803696798688  1.0000
  C   C812      1.0  0.15415608351530757  0.7593778440709242  0.08332217995871259  1.0000
  C   C813      1.0  0.1458802553163701  0.7556681616861528  0.05272229716015044  1.0000
  C   C814      1.0  0.16690555425548878  0.7624357850926051  0.0285176414097017  1.0000
  C   C815      1.0  0.19389118487382695  0.7783217936174007  0.03777673715938823  1.0000
  C   C816      1.0  0.2012464850029858  0.7832375825505213  0.06829155757760334  1.0000
  C   C817      1.0  0.18319798229722364  0.7713031883501835  0.09206554336671798  1.0000
  C   C818      1.0  0.16033870942229128  0.7490220915268372  0.9936537572861692  1.0000
  C   C819      1.0  0.19075985116791702  0.657334670454604  0.02643723759550287  1.0000
  C   C820      1.0  0.15891790960899557  0.6649127938912799  0.026699354307621048  1.0000
  C   C821      1.0  0.14838842957688292  0.6919564411973197  0.01323694551676069  1.0000
  C   C822      1.0  0.1694393855879662  0.7136582904474711  0.0013283457040422775  1.0000
  C   C823      1.0  0.20089511584800596  0.7062065763871691  0.0021146958403968075  1.0000
  C   C824      1.0  0.21117325700416492  0.6775855874606992  0.012592280089659402  1.0000
  C   C825      1.0  0.17825923731541643  0.7652284248800365  0.9652011062563369  1.0000
  C   C826      1.0  0.18308935090399284  0.7972354571229717  0.9657631222697074  1.0000
  C   C827      1.0  0.1988169236131117  0.8120316920916829  0.942550444070417  1.0000
  C   C828      1.0  0.20984697166755975  0.7948567081720265  0.91659616674708  1.0000
  C   C829      1.0  0.2060103276932572  0.7629612696610754  0.9154839417794436  1.0000
  C   C830      1.0  0.18911237721661964  0.7485123273222573  0.9388997013953301  1.0000
  C   C831      1.0  0.11112853178694383  0.7327153851210458  0.965441970262067  1.0000
  C   C832      1.0  0.07933475617116424  0.7348859031328773  0.9594014788242458  1.0000
  C   C833      1.0  0.062346064387704986  0.7601422545228302  0.9694067807093315  1.0000
  C   C834      1.0  0.07828039768565424  0.7846042704984488  0.9831006078586383  1.0000
  C   C835      1.0  0.10885347672809541  0.7820960324366611  0.9909782776931075  1.0000
  C   C836      1.0  0.12588557607910686  0.7552804214154623  0.982961284561206  1.0000
  H   H509      1.0  0.18004545701077054  0.7519194697252327  0.19016732762997982  1.0000
  H   H510      1.0  0.20371530410906866  0.7137957911203882  0.09949076669630587  1.0000
  H   H511      1.0  0.2174467418669348  0.6651475776072787  0.1267967161459168  1.0000
  H   H512      1.0  0.18928488277721836  0.7029068039313489  0.21491492351284494  1.0000
  H   H513      1.0  0.24971563370248245  0.752868862209162  0.09819553231255095  1.0000
  H   H514      1.0  0.30180210825702275  0.7594819973680995  0.11521115747029535  1.0000
  H   H515      1.0  0.27102433016636507  0.8084661568302248  0.19668340740852736  1.0000
  H   H516      1.0  0.21744481755793144  0.8010253776214687  0.18051765436511913  1.0000
  H   H517      1.0  0.13929578454738883  0.7495959712774792  0.10163209493548354  1.0000
  H   H518      1.0  0.12448666570519969  0.743052746703501  0.049096585450365035  1.0000
  H   H519      1.0  0.21160266460942057  0.7840291099972224  0.02051245533690471  1.0000
  H   H520      1.0  0.22246814440657783  0.7955705570897272  0.07417902952943153  1.0000
  H   H521      1.0  0.14306818144268332  0.6492251005355545  0.038839372478786105  1.0000
  H   H522      1.0  0.12425937351256737  0.697396035196734  0.015688090986838432  1.0000
  H   H523      1.0  0.21857481425427341  0.7229388993106864  0.9956656801575624  1.0000
  H   H524      1.0  0.23588941510565498  0.6733355402755241  0.01157451159485845  1.0000
  H   H525      1.0  0.1758790824281659  0.812461271741246  0.9843710474182737  1.0000
  H   H526      1.0  0.20547653897728038  0.8364187051164361  0.9451291057788223  1.0000
  H   H527      1.0  0.2162754367334848  0.7489396587216332  0.8968689323954144  1.0000
  H   H528      1.0  0.18522235079598925  0.7233649306780973  0.9368736100530116  1.0000
  H   H529      1.0  0.12406861082412396  0.713324843686375  0.9555264020261748  1.0000
  H   H530      1.0  0.068329340833497  0.7155003379590532  0.9467490342879488  1.0000
  H   H531      1.0  0.06536967709155732  0.8059318328236545  0.9897338136635015  1.0000
  H   H532      1.0  0.11927955045221603  0.8014900124952241  0.0027758911502444583  1.0000
  C   C837      1.0  0.3641631800437189  0.8899311430851872  0.3469669616661393  1.0000
  C   C838      1.0  0.3798448250470176  0.8669471325326793  0.36306234463728515  1.0000
  C   C839      1.0  0.3969441038088547  0.8451072997491644  0.34648287224285806  1.0000
  C   C840      1.0  0.39660793320547316  0.8439343015989733  0.3135931284015846  1.0000
  C   C841      1.0  0.3805876631302816  0.8683684989331856  0.2985981633389707  1.0000
  C   C842      1.0  0.36560441070225574  0.8916892278546671  0.31480689407751905  1.0000
  H   H533      1.0  0.3789631179326677  0.8658992352520041  0.3887497824248621  1.0000
  H   H534      1.0  0.4087604775129743  0.8280171231072454  0.36040339492696966  1.0000
  H   H535      1.0  0.3812230651338916  0.8699600891996951  0.27264860883927555  1.0000
  H   H536      1.0  0.35471532162985747  0.9106391913416881  0.3026172862581154  1.0000
  C   C843      1.0  0.3601716062548817  0.8018506092161682  0.27006758571904926  1.0000
  C   C844      1.0  0.39166596729894554  0.8064208069581856  0.2653376778418185  1.0000
  C   C845      1.0  0.4044783652661667  0.7961389910631774  0.2367527877500167  1.0000
  C   C846      1.0  0.38549795149654253  0.7835304615351227  0.21372335510802687  1.0000
  C   C847      1.0  0.35408614520243625  0.780195969847179  0.21907525885887852  1.0000
  C   C848      1.0  0.34155377904817075  0.7889731479765144  0.24698006234626566  1.0000
  C   C849      1.0  0.412740210101426  0.817164835622674  0.2939343749927247  1.0000
  C   C850      1.0  0.41808710199955296  0.7831846964435711  0.3091300600601137  1.0000
  C   C851      1.0  0.441324685001144  0.7637553725311079  0.297044354360829  1.0000
  C   C852      1.0  0.44601744253408826  0.7341449680262041  0.30778877814585154  1.0000
  C   C853      1.0  0.4276189255452623  0.7228642504686691  0.3320877057827487  1.0000
  C   C854      1.0  0.40375902699380134  0.7411903674865821  0.3437459959424534  1.0000
  C   C855      1.0  0.39893113820552656  0.7710389911474623  0.3320121406044804  1.0000
  C   C856      1.0  0.44835686255753926  0.8550242195956261  0.2619065464660739  1.0000
  C   C857      1.0  0.4763572173714077  0.8677448457955084  0.25346449920641334  1.0000
  C   C858      1.0  0.5033705864156489  0.8611304680265356  0.2700605014835867  1.0000
  C   C859      1.0  0.5005176809950768  0.840318068003908  0.29509146678495785  1.0000
  C   C860      1.0  0.4719608266303063  0.828818442039386  0.3035760194573944  1.0000
  C   C861      1.0  0.4454071178891782  0.8340225132855789  0.28615352304291164  1.0000
  C   C862      1.0  0.5370436026725789  0.8723385598107922  0.25807161366895814  1.0000
  C   C863      1.0  0.5415596474454228  0.812945588352876  0.17359706474165415  1.0000
  C   C864      1.0  0.5313154055919583  0.8432533781610534  0.17161961848284582  1.0000
  C   C865      1.0  0.5305363030603354  0.8615123378958395  0.19794085920314813  1.0000
  C   C866      1.0  0.5401141203494907  0.850656014179646  0.22723677039421808  1.0000
  C   C867      1.0  0.5487529474107686  0.8201261185787174  0.22917218352261465  1.0000
  C   C868      1.0  0.5501315889004921  0.8011932862280048  0.20266509969200877  1.0000
  C   C869      1.0  0.5639171931774437  0.868502815188193  0.28438246417724855  1.0000
  C   C870      1.0  0.5594670761262048  0.8797091984832959  0.3147691114883849  1.0000
  C   C871      1.0  0.580623278250807  0.8742954274650983  0.3385249144064787  1.0000
  C   C872      1.0  0.607609851002574  0.8584010943875926  0.3316413989486016  1.0000
  C   C873      1.0  0.6144144428990816  0.8502413255135498  0.3011036212809287  1.0000
  C   C874      1.0  0.5927793746002903  0.8555810852113307  0.2779240028471306  1.0000
  C   C875      1.0  0.5659565371882833  0.9180457316860037  0.230976066012588  1.0000
  C   C876      1.0  0.5685374522870882  0.9489704234033735  0.22177789468788034  1.0000
  C   C877      1.0  0.5481351623772618  0.9702988350757046  0.2345467568269468  1.0000
  C   C878      1.0  0.52519579962687  0.9613893118860809  0.25506789783279366  1.0000
  C   C879      1.0  0.5228981225235104  0.930556757211204  0.26312739637747096  1.0000
  C   C880      1.0  0.5413710946385184  0.9080523142417599  0.2498798760623113  1.0000
  H   H537      1.0  0.34842824780192133  0.8088663952282897  0.29275603049410354  1.0000
  H   H538      1.0  0.42957362661209364  0.7954989998081711  0.23241605494096312  1.0000
  H   H539      1.0  0.39591441819164697  0.7747985307141468  0.191960111484395  1.0000
  H   H540      1.0  0.31664290458175065  0.7868029631941891  0.2517973424608692  1.0000
  H   H541      1.0  0.45561269079481564  0.7706731240140439  0.2774233835411032  1.0000
  H   H542      1.0  0.46399442389471635  0.7185833950320955  0.29878471487282054  1.0000
  H   H543      1.0  0.38845311355342194  0.7337415163988217  0.36246963027024326  1.0000
  H   H544      1.0  0.38031536353470985  0.7840961354873542  0.34225358367165465  1.0000
  H   H545      1.0  0.42776091174876096  0.8599833651709194  0.2472681545884135  1.0000
  H   H546      1.0  0.4770734371875054  0.8836655297173623  0.23322318550134127  1.0000
  H   H547      1.0  0.5205578473987312  0.8318311498315328  0.3073212186053165  1.0000
  H   H548      1.0  0.4719412341988416  0.8140752906749181  0.32445798418947225  1.0000
  H   H549      1.0  0.5235541801291752  0.8546691115858892  0.1505570057464703  1.0000
  H   H550      1.0  0.5218844732519463  0.8839984296284352  0.1951055120298126  1.0000
  H   H551      1.0  0.5539818960737979  0.8097882942654288  0.25170997022349645  1.0000
  H   H552      1.0  0.5569906179160613  0.7767678112822267  0.2060095672539269  1.0000
  H   H553      1.0  0.5385253470282657  0.8926743306875374  0.3211260321102048  1.0000
  H   H554      1.0  0.5781706065550856  0.883638273321586  0.36224293473543834  1.0000
  H   H555      1.0  0.6357314346422346  0.8371046789257129  0.295882539744954  1.0000
  H   H556      1.0  0.5995829920387187  0.8490107719068648  0.2541965368708874  1.0000
  H   H557      1.0  0.5833423664649102  0.9019437610713251  0.22158236978911117  1.0000
  H   H558      1.0  0.5868649878214075  0.9558922730351919  0.20612480415078607  1.0000
  H   H559      1.0  0.5070963236637827  0.9775073117106752  0.26367288250809523  1.0000
  H   H560      1.0  0.5045149339999995  0.9233221711722  0.27928417605595984  1.0000
  C   C881      1.0  0.2451198152115785  0.7133344947991749  0.39271223146030565  1.0000
  C   C882      1.0  0.22647262744501534  0.6936725697713468  0.37491899338994406  1.0000
  C   C883      1.0  0.23967363421140625  0.6723059851633432  0.3547572592632358  1.0000
  C   C884      1.0  0.2716476899548404  0.6705711810251995  0.35165436413059414  1.0000
  C   C885      1.0  0.28979420996447414  0.6891119391680354  0.3708597264698444  1.0000
  C   C886      1.0  0.27695527692010913  0.7096597782531174  0.3910686888329703  1.0000
  H   H561      1.0  0.20162620114971525  0.6946937133350927  0.3758092456464174  1.0000
  H   H562      1.0  0.22450004857030792  0.6567738170035666  0.3408674349327957  1.0000
  H   H563      1.0  0.3149580829168808  0.6882687764003175  0.371294226244887  1.0000
  H   H564      1.0  0.2928731177840129  0.72386995435885  0.404091875025146  1.0000
  C   C887      1.0  0.33614506725414656  0.6730092275515654  0.31177484129950384  1.0000
  C   C888      1.0  0.32438442132001843  0.6463321268322193  0.3252514185612893  1.0000
  C   C889      1.0  0.3449354988771647  0.6227730893739977  0.33268750438525324  1.0000
  C   C890      1.0  0.3761762973534824  0.6292526503449569  0.3317641923632876  1.0000
  C   C891      1.0  0.3879092795764271  0.6568092466701255  0.32051442644859585  1.0000
  C   C892      1.0  0.36733757669627715  0.677498034011764  0.30808395462346205  1.0000
  C   C893      1.0  0.28699324872705806  0.6440513366777393  0.32871088687888445  1.0000
  C   C894      1.0  0.2752970985712594  0.6453292812758721  0.292338060601807  1.0000
  C   C895      1.0  0.2857119915451932  0.6228850951312751  0.2709861749173732  1.0000
  C   C896      1.0  0.2788705493973522  0.6245378514303788  0.23954869934594344  1.0000
  C   C897      1.0  0.2608251962293735  0.6488643287667254  0.22879577447836574  1.0000
  C   C898      1.0  0.25269461585851677  0.6730553869882212  0.24876056685921225  1.0000
  C   C899      1.0  0.2610290026001359  0.6716812207158287  0.28054280855649105  1.0000
  C   C900      1.0  0.2859168218616264  0.6063406717763682  0.3772898508581117  1.0000
  C   C901      1.0  0.2829470517265957  0.5772198198454581  0.3904925043486746  1.0000
  C   C902      1.0  0.2739596767056687  0.5525686360241925  0.37200028837933136  1.0000
  C   C903      1.0  0.2623870052566059  0.5587737916496555  0.34222288531798317  1.0000
  C   C904      1.0  0.2627181016667293  0.5879077148472031  0.32992701396663976  1.0000
  C   C905      1.0  0.27735775852498856  0.6121888760524528  0.346015312702323  1.0000
  C   C906      1.0  0.2812495119824402  0.5167421950457067  0.38137981613188293  1.0000
  C   C907      1.0  0.37706395461200937  0.5220625188738786  0.34678513295593116  1.0000
  C   C908      1.0  0.36980493896423194  0.5319631673255368  0.3765483675463541  1.0000
  C   C909      1.0  0.34049802044934585  0.5286076077134093  0.387937456758478  1.0000
  C   C910      1.0  0.31691684191989844  0.5161297255676914  0.36943579514185126  1.0000
  C   C911      1.0  0.3242611148767668  0.5067764749049911  0.33930654171919133  1.0000
  C   C912      1.0  0.353916078682914  0.5091293302269352  0.32800954756808187  1.0000
  C   C913      1.0  0.2572614772901237  0.49225679674862893  0.3676812661589344  1.0000
  C   C914      1.0  0.22525447526872897  0.49864114474318205  0.3673128859148765  1.0000
  C   C915      1.0  0.20473067899294917  0.4775961145553151  0.35515397644914437  1.0000
  C   C916      1.0  0.21478087182936278  0.44843631747182056  0.34526674515510275  1.0000
  C   C917      1.0  0.24590116104787027  0.44119868624998115  0.3474959179140173  1.0000
  C   C918      1.0  0.2662377119357508  0.46309882521683754  0.35899835489354365  1.0000
  C   C919      1.0  0.29646243990593585  0.48686096588788597  0.4301406088213182  1.0000
  C   C920      1.0  0.2957490163898488  0.48017557184971943  0.4617386603965681  1.0000
  C   C921      1.0  0.2752300325273388  0.49563205338347044  0.4813124029798762  1.0000
  C   C922      1.0  0.2544881366897401  0.5172850357041974  0.46841201020238643  1.0000
  C   C923      1.0  0.2553083952290361  0.5233980803282786  0.43650225226677997  1.0000
  C   C924      1.0  0.27746014644343076  0.5092889117111414  0.4170017134499192  1.0000
  H   H565      1.0  0.32188615481770094  0.6923740001803692  0.30505898608090953  1.0000
  H   H566      1.0  0.3381905191120336  0.6003238628914133  0.34252278461923547  1.0000
  H   H567      1.0  0.39211274891514974  0.6121048912479428  0.3407304730471844  1.0000
  H   H568      1.0  0.37442079598472855  0.6991173928014713  0.29835493792141965  1.0000
  H   H569      1.0  0.30119599644641765  0.6051575819795265  0.2785899209806199  1.0000
  H   H570      1.0  0.2860827869632573  0.6052507645490065  0.2244271626097302  1.0000
  H   H571      1.0  0.24156270836380725  0.6942875615604217  0.2403161581877308  1.0000
  H   H572      1.0  0.25631244961188115  0.690952102908827  0.2954267872635234  1.0000
  H   H573      1.0  0.2970694244983419  0.6243335536202435  0.3905137570550625  1.0000
  H   H574      1.0  0.290606827668502  0.5724437087841431  0.414052310085635  1.0000
  H   H575      1.0  0.2538905496797319  0.5398946314766816  0.3267957818921475  1.0000
  H   H576      1.0  0.2536175359371421  0.5909355430877465  0.30684657482931876  1.0000
  H   H577      1.0  0.3870829914379992  0.5434382711433298  0.39060112929243523  1.0000
  H   H578      1.0  0.3361082194317221  0.5368961418521229  0.4117192352066016  1.0000
  H   H579      1.0  0.3058140203929125  0.4989507534201276  0.32441547877669635  1.0000
  H   H580      1.0  0.3581382204032246  0.5005957928114758  0.3044851630084347  1.0000
  H   H581      1.0  0.21640488451407638  0.5209986248231193  0.3750276183337048  1.0000
  H   H582      1.0  0.18034636365010606  0.48389556838886866  0.3546911397322511  1.0000
  H   H583      1.0  0.2550409428380868  0.4192202727243814  0.338376145461763  1.0000
  H   H584      1.0  0.29103739877468415  0.45661003188291455  0.36043645469246205  1.0000
  H   H585      1.0  0.3121850383347726  0.47392057158050704  0.4153723392935092  1.0000
  H   H586      1.0  0.3126585472923607  0.4639317665768587  0.47103790014720953  1.0000
  H   H587      1.0  0.23796867791191723  0.529921918004583  0.48241282088840814  1.0000
  H   H588      1.0  0.24018166026275914  0.541365300765721  0.42806965065440294  1.0000
  C   C925      1.0  0.6686252840425941  0.7415683817475358  0.9209411644975067  1.0000
  C   C926      1.0  0.6822357885467546  0.7263896020245536  0.9459390700333855  1.0000
  C   C927      1.0  0.7070742627504751  0.7401832117358258  0.9616093988767723  1.0000
  C   C928      1.0  0.718066710053509  0.7695968840527754  0.9533090363263648  1.0000
  C   C929      1.0  0.7022181219542055  0.7850569829719457  0.9294540541117938  1.0000
  C   C930      1.0  0.678242164393125  0.7709747475164497  0.9133633939642897  1.0000
  H   H589      1.0  0.6744169431955608  0.7030943481067311  0.9531295690279774  1.0000
  H   H590      1.0  0.7179370360932915  0.7287908391347477  0.9809115791006787  1.0000
  H   H591      1.0  0.7081498642909151  0.8086411612530551  0.9224642751219769  1.0000
  H   H592      1.0  0.6667515766339258  0.7837418794649712  0.8950813436470051  1.0000
  C   C931      1.0  0.7698171718038919  0.8118698000927462  0.925333390484351  1.0000
  C   C932      1.0  0.7598101062175528  0.8153973554228637  0.956175790276918  1.0000
  C   C933      1.0  0.7616457887042887  0.8448058908554482  0.9702379976702827  1.0000
  C   C934      1.0  0.7705631359991364  0.8702339922121175  0.9526903464292931  1.0000
  C   C935      1.0  0.7782931279886429  0.8664597690039595  0.9211702214441325  1.0000
  C   C936      1.0  0.7784366974052913  0.8368382272541588  0.9080478559554797  1.0000
  C   C937      1.0  0.7463663087680136  0.7856023044318006  0.9736903817524153  1.0000
  C   C938      1.0  0.777058858686088  0.7649040914857006  0.9767932768850569  1.0000
  C   C939      1.0  0.802006866032513  0.7740752225808857  0.9958333403968452  1.0000
  C   C940      1.0  0.8299102526294195  0.758082132525516  0.9976846872644183  1.0000
  C   C941      1.0  0.8347127464599718  0.732544993673462  0.9782833277440347  1.0000
  C   C942      1.0  0.8112430300946364  0.7236309777823009  0.9577744660796564  1.0000
  C   C943      1.0  0.7830027871146246  0.7397061622108134  0.9564709667545285  1.0000
  C   C944      1.0  0.7046831798975111  0.8131843802799985  0.00800169550986074  1.0000
  C   C945      1.0  0.6898027402243163  0.8200191201533796  0.03608596629563521  1.0000
  C   C946      1.0  0.7000609330094485  0.8073761769207606  0.06446323673358607  1.0000
  C   C947      1.0  0.7250935919347855  0.7870269528013035  0.06291556742617865  1.0000
  C   C948      1.0  0.7379572904928052  0.7782170349109164  0.03503513803534175  1.0000
  C   C949      1.0  0.7293853090116745  0.7922735091429828  0.00704532372240263  1.0000
  C   C950      1.0  0.6861863045300317  0.8188403226230684  0.09748026067200516  1.0000
  C   C951      1.0  0.7380903653611879  0.9069137306980423  0.09931980048047384  1.0000
  C   C952      1.0  0.7082941272362366  0.9061805831293034  0.08644207725646463  1.0000
  C   C953      1.0  0.6913077367874604  0.8788662584673465  0.0878218501834072  1.0000
  C   C954      1.0  0.7040827331827525  0.8518646585507711  0.10053285773286201  1.0000
  C   C955      1.0  0.7340045228943118  0.8538327808349075  0.11294632739288543  1.0000
  C   C956      1.0  0.7500956221373155  0.8810776769427929  0.11314090772692628  1.0000
  C   C957      1.0  0.6902657896650716  0.7974898642407661  0.12741068321934665  1.0000
  C   C958      1.0  0.6859859667398507  0.7658703924224323  0.12510098631733996  1.0000
  C   C959      1.0  0.6786192064936578  0.7487548404807378  0.15139341781342744  1.0000
  C   C960      1.0  0.679131641206988  0.762915481705242  0.1812329260056649  1.0000
  C   C961      1.0  0.6878989366326468  0.7940903066434757  0.18391525369300712  1.0000
  C   C962      1.0  0.6916453256996077  0.8112718387863401  0.15718737785714862  1.0000
  C   C963      1.0  0.6317042503076344  0.8406566266627654  0.11454287792498515  1.0000
  C   C964      1.0  0.6006384195854841  0.8384585173796107  0.11861347962182513  1.0000
  C   C965      1.0  0.5852697581081133  0.8131867755801483  0.1061919811616107  1.0000
  C   C966      1.0  0.6007596952547891  0.7915990781360764  0.08735452678405424  1.0000
  C   C967      1.0  0.6317843375591379  0.7947983812910628  0.08202151432776963  1.0000
  C   C968      1.0  0.648491097671686  0.8192629326593591  0.09624075560722312  1.0000
  H   H593      1.0  0.7720973530341525  0.7890210166979716  0.9149715154143118  1.0000
  H   H594      1.0  0.7545882840653257  0.848214794541739  0.9948250175493276  1.0000
  H   H595      1.0  0.7692178198939826  0.8938333783593277  0.9621997518319932  1.0000
  H   H596      1.0  0.785170861686908  0.8318835468117304  0.8841338384453865  1.0000
  H   H597      1.0  0.8006585678124274  0.7948100201231604  0.00926977365767545  1.0000
  H   H598      1.0  0.8480534403971063  0.7667059463813188  0.013321956342312813  1.0000
  H   H599      1.0  0.815410892849335  0.7037561727772221  0.9421938708854634  1.0000
  H   H600      1.0  0.766938680596323  0.731058175405185  0.9392326604620748  1.0000
  H   H601      1.0  0.6964331747038593  0.8249681297185304  0.9868599754774857  1.0000
  H   H602      1.0  0.67041446637174  0.8357367305420224  0.03573647734614438  1.0000
  H   H603      1.0  0.7361385030565213  0.7794410496525214  0.08397534646836913  1.0000
  H   H604      1.0  0.7561445227239056  0.7610284546805169  0.03581912675987531  1.0000
  H   H605      1.0  0.6974910644926375  0.9265191386004851  0.07575786947287462  1.0000
  H   H606      1.0  0.6683079026170083  0.8795648232075606  0.07732490235721329  1.0000
  H   H607      1.0  0.7454090688294808  0.8340541872932222  0.12285740894631798  1.0000
  H   H608      1.0  0.7744286436411657  0.8811989147174701  0.12093451130057208  1.0000
  H   H609      1.0  0.6829120424158949  0.7549587726513333  0.10209280638173804  1.0000
  H   H610      1.0  0.6726756278244116  0.7249013733167645  0.14896872015574367  1.0000
  H   H611      1.0  0.6878806878191044  0.80677613748724  0.20596800640587934  1.0000
  H   H612      1.0  0.6959850314852963  0.8368097806838678  0.16005436794888397  1.0000
  H   H613      1.0  0.6439863433103766  0.8589119286576077  0.12737408133612296  1.0000
  H   H614      1.0  0.5878093558542211  0.8545495451087128  0.13312222999051898  1.0000
  H   H615      1.0  0.5879531311859226  0.7716775145002408  0.07856464356317744  1.0000
  H   H616      1.0  0.6429158772353057  0.7769722510247558  0.06790334147425  1.0000
  C   C969      1.0  0.6883909751710153  0.8988406939299791  0.6979034566031846  1.0000
  C   C970      1.0  0.6817528543425386  0.9137939534631124  0.7258838252688401  1.0000
  C   C971      1.0  0.7055561167988895  0.923226418459009  0.7451694756100004  1.0000
  C   C972      1.0  0.7365593863943268  0.9196634736627493  0.7366990914084891  1.0000
  C   C973      1.0  0.742731736990373  0.904458317310798  0.7082322719077316  1.0000
  C   C974      1.0  0.7184104492396588  0.8939347756637851  0.6893244474579128  1.0000
  H   H617      1.0  0.6579334368519392  0.918610524507845  0.7321250367114367  1.0000
  H   H618      1.0  0.6991136290848122  0.938279800952238  0.765569712330618  1.0000
  H   H619      1.0  0.7666661381315333  0.9018978876069612  0.6999012110036525  1.0000
  H   H620      1.0  0.7226676178103  0.8832343870098125  0.6669477090432153  1.0000
  C   C975      1.0  0.8042468055184009  0.8915609118080112  0.7537579304025557  1.0000
  C   C976      1.0  0.7980567842274945  0.9232101603265491  0.756258665520872  1.0000
  C   C977      1.0  0.823015634409657  0.9430341466592775  0.7605635192703436  1.0000
  C   C978      1.0  0.8529849540873092  0.9322936097234281  0.7625636350826326  1.0000
  C   C979      1.0  0.8581458138163714  0.9006550816975711  0.7597086881911835  1.0000
  C   C980      1.0  0.8340983216730242  0.8803965902398257  0.7556116386819498  1.0000
  C   C981      1.0  0.7629859671343127  0.9357684414992619  0.7577487163798499  1.0000
  C   C982      1.0  0.7576999219834504  0.9313934582000412  0.7951275040926239  1.0000
  C   C983      1.0  0.7673078511151366  0.9533364640920852  0.8167958189610562  1.0000
  C   C984      1.0  0.7649154335325149  0.948521546349363  0.8487598893685431  1.0000
  C   C985      1.0  0.7539140582731577  0.9207145413350936  0.8596837804519529  1.0000
  C   C986      1.0  0.7435939268840353  0.898641993049313  0.8386436011278756  1.0000
  C   C987      1.0  0.7460297999901694  0.9038158211692915  0.8066252182485085  1.0000
  C   C988      1.0  0.7742080012134774  0.977114529221578  0.7161430015076933  1.0000
  C   C989      1.0  0.7742600193970387  0.006459069783837146  0.7046641786463759  1.0000
  C   C990      1.0  0.7610818903777367  0.031153710929692435  0.7212979635126833  1.0000
  C   C991      1.0  0.7449455131053242  0.024097342696735247  0.7486265825157746  1.0000
  C   C992      1.0  0.742738642889143  0.9936154677465379  0.7585138138098163  1.0000
  C   C993      1.0  0.7597949964096258  0.9704593885383067  0.7442060195870797  1.0000
  C   C994      1.0  0.7710599974600922  0.06570464713076685  0.7128748075475897  1.0000
  C   C995      1.0  0.8568719186940845  0.05656394808248253  0.7672038093106696  1.0000
  C   C996      1.0  0.8558915436554062  0.04767682481666265  0.7360733172759549  1.0000
  C   C997      1.0  0.829314971657339  0.05342640642056051  0.7191136575783654  1.0000
  C   C998      1.0  0.8028807786048312  0.0664063067184454  0.7329066640241494  1.0000
  C   C999      1.0  0.8041384460977028  0.07440521674753862  0.7645968106604136  1.0000
  C   C1000     1.0  0.8309473413393651  0.06999464798166424  0.7814643752969886  1.0000
  C   C1001     1.0  0.74595715779321  0.09158797203636736  0.7217324632877259  1.0000
  C   C1002     1.0  0.7142300288816731  0.08525255432265295  0.7179116989615355  1.0000
  C   C1003     1.0  0.6934385234121021  0.10804702224049571  0.7230926364965552  1.0000
  C   C1004     1.0  0.7022653717510553  0.13737379842055616  0.7324627186018231  1.0000
  C   C1005     1.0  0.733527123641906  0.14448925371076046  0.734930393954647  1.0000
  C   C1006     1.0  0.7552365293232013  0.12124991060288692  0.7305003853786685  1.0000
  C   C1007     1.0  0.7945733321789253  0.09474954777325145  0.6647822944034646  1.0000
  C   C1008     1.0  0.795517609747468  0.10236924267647975  0.6333164818901843  1.0000
  C   C1009     1.0  0.7734856017581703  0.09005838766270012  0.612665935516553  1.0000
  C   C1010     1.0  0.752125322565712  0.06895543308979997  0.6236205249536342  1.0000
  C   C1011     1.0  0.7519493910403359  0.06041934207499208  0.6547958838129458  1.0000
  C   C1012     1.0  0.7730751980453582  0.07356221775876423  0.6761265167909917  1.0000
  H   H621      1.0  0.7857146542515249  0.8746800073328247  0.7509738258657335  1.0000
  H   H622      1.0  0.821528045594318  0.9679585012687086  0.7634538873391057  1.0000
  H   H623      1.0  0.8719347474675729  0.9481125457846358  0.7660963071666751  1.0000
  H   H624      1.0  0.8386415737437614  0.8558320460573201  0.7542750795913293  1.0000
  H   H625      1.0  0.7778180709763322  0.9749321680180104  0.8095510074945839  1.0000
  H   H626      1.0  0.7739904102634985  0.9654606472876905  0.8651268346990907  1.0000
  H   H627      1.0  0.7351979197035238  0.8762348014143826  0.8464669584904646  1.0000
  H   H628      1.0  0.7394157814105683  0.8859139823392541  0.7898780856147986  1.0000
  H   H629      1.0  0.7870894860296851  0.9598881162190347  0.7037786492135443  1.0000
  H   H630      1.0  0.7882894861490258  0.010094112633620922  0.6836428906168658  1.0000
  H   H631      1.0  0.7345428020505925  0.04283796786351427  0.7626840670854976  1.0000
  H   H632      1.0  0.7308215577638323  0.9889707564461192  0.7801349004418309  1.0000
  H   H633      1.0  0.8754916373482888  0.03629957952069192  0.7243701602916534  1.0000
  H   H634      1.0  0.8294696705084487  0.04837195925879091  0.6942810508699485  1.0000
  H   H635      1.0  0.7836395431204659  0.08293125060023265  0.7769611629545627  1.0000
  H   H636      1.0  0.8303244523932383  0.07445678567211635  0.8069038648433728  1.0000
  H   H637      1.0  0.7050179509149884  0.062262600576083835  0.7108014879688535  1.0000
  H   H638      1.0  0.6689974378212908  0.1015867403992037  0.7216639823449202  1.0000
  H   H639      1.0  0.740516207122333  0.1676830846095424  0.7422059037747908  1.0000
  H   H640      1.0  0.7800142272000973  0.12652832148079612  0.7322808898916151  1.0000
  H   H641      1.0  0.8113629143431572  0.1069110917788053  0.6800747973555098  1.0000
  H   H642      1.0  0.812187119456601  0.11876679126075583  0.624338394147183  1.0000
  H   H643      1.0  0.7351173054737374  0.0594662096108805  0.6071756530329975  1.0000
  H   H644      1.0  0.7340072858976043  0.04408933231510772  0.661391307028675  1.0000
  C   C1013     1.0  0.835672261915666  0.6969058426590105  0.7736669934644295  1.0000
  C   C1014     1.0  0.8522467436296626  0.7194902337684231  0.7587735691101135  1.0000
  C   C1015     1.0  0.8753744224878744  0.7359437085734728  0.7741133002985764  1.0000
  C   C1016     1.0  0.8833221937643474  0.7284187083464861  0.8047667871454728  1.0000
  C   C1017     1.0  0.869461146924924  0.7025277808366662  0.8179552721651102  1.0000
  C   C1018     1.0  0.8451428396751157  0.6876649900635131  0.8032625678155695  1.0000
  H   H645      1.0  0.845867627976246  0.7272926110809702  0.7351334753712431  1.0000
  H   H646      1.0  0.8860133407773818  0.7551000530367373  0.7632909499234648  1.0000
  H   H647      1.0  0.8764072703156323  0.6932881630665801  0.8408845809458947  1.0000
  H   H648      1.0  0.8337306060094659  0.6685037385602882  0.8148145944433345  1.0000
  C   C1019     1.0  0.8755784651016838  0.7494171421856044  0.8763671549664989  1.0000
  C   C1020     1.0  0.9046814595868061  0.7459311172945453  0.8625977626389237  1.0000
  C   C1021     1.0  0.9297634078653968  0.7428806889759488  0.8827358826474232  1.0000
  C   C1022     1.0  0.9260611935158606  0.7415698805815669  0.9150588876516845  1.0000
  C   C1023     1.0  0.8972816209507856  0.74397445370367  0.9279781717237413  1.0000
  C   C1024     1.0  0.8721549065031826  0.7488481341053207  0.9081470352519567  1.0000
  C   C1025     1.0  0.9083505890748025  0.7477330668046054  0.8240902200757672  1.0000
  C   C1026     1.0  0.9049268239597661  0.7851149812885194  0.8201206868048609  1.0000
  C   C1027     1.0  0.9303643568603263  0.8040552821904648  0.8242649645505126  1.0000
  C   C1028     1.0  0.9292007948587766  0.8351936686039529  0.8172232345006362  1.0000
  C   C1029     1.0  0.9017427512483593  0.8486247843310651  0.8078814893372187  1.0000
  C   C1030     1.0  0.874842578853669  0.8312768157680239  0.8083396032304704  1.0000
  C   C1031     1.0  0.8767569900654847  0.7998596049640501  0.8145076109066196  1.0000
  C   C1032     1.0  0.9466560960252699  0.701462101880848  0.8235919621815605  1.0000
  C   C1033     1.0  0.9760713503936608  0.6892501179907325  0.8204347545770386  1.0000
  C   C1034     1.0  0.9997342432361652  0.7066102340133553  0.8064292210673751  1.0000
  C   C1035     1.0  0.9903591672658703  0.7332706730498412  0.7909029383450623  1.0000
  C   C1036     1.0  0.9604567674375446  0.7433555476673384  0.7916892884814167  1.0000
  C   C1037     1.0  0.9392882865147084  0.7304048473001402  0.812072995319288  1.0000
  C   C1038     1.0  0.03542200011150112  0.6995367201463043  0.8145312250248284  1.0000
  C   C1039     1.0  0.02481514086366756  0.7522705925044448  0.9032211301935926  1.0000
  C   C1040     1.0  0.01934995934686641  0.720505798360842  0.9018515113374799  1.0000
  C   C1041     1.0  0.026221848512515297  0.704085020336027  0.875181726232415  1.0000
  C   C1042     1.0  0.0360849732441847  0.718592031698013  0.8477066996964288  1.0000
  C   C1043     1.0  0.040189748233774775  0.750906762204797  0.848984223491527  1.0000
  C   C1044     1.0  0.03476457301320737  0.76761970346346  0.8762042175508579  1.0000
  C   C1045     1.0  0.061368774621179574  0.712301274093304  0.7904306559808855  1.0000
  C   C1046     1.0  0.056515432385560685  0.7127901637469851  0.7578124744990138  1.0000
  C   C1047     1.0  0.0798686513529685  0.7213999525573596  0.7379388326144534  1.0000
  C   C1048     1.0  0.10818711562050619  0.7309159705600136  0.7498710465453805  1.0000
  C   C1049     1.0  0.1134694335223215  0.7297407792257221  0.781214065643975  1.0000
  C   C1050     1.0  0.09043066471987203  0.7204669873987407  0.8014631720080558  1.0000
  C   C1051     1.0  0.06571909590089031  0.6519249231689316  0.8360649394194702  1.0000
  C   C1052     1.0  0.07695888957523211  0.6219804112120402  0.8341781713745839  1.0000
  C   C1053     1.0  0.0684839760072038  0.6025909360405303  0.8092676380760777  1.0000
  C   C1054     1.0  0.04608130817028673  0.6129141890400291  0.7886832112334313  1.0000
  C   C1055     1.0  0.03355259960029025  0.6425532017146974  0.7918545873088785  1.0000
  C   C1056     1.0  0.04444772753303173  0.663243367794155  0.8150814339790944  1.0000
  H   H649      1.0  0.8551541931667812  0.7536864450225588  0.8623380073386264  1.0000
  H   H650      1.0  0.9528151931319072  0.7434647332676111  0.873228838656544  1.0000
  H   H651      1.0  0.9458050665642559  0.7372752724032119  0.930386811781043  1.0000
  H   H652      1.0  0.8487489404179754  0.7521298846478645  0.9159916453209336  1.0000
  H   H653      1.0  0.9532314502361654  0.7948980407914075  0.8306478607023622  1.0000
  H   H654      1.0  0.9503610630837087  0.8487074785885782  0.817308245326188  1.0000
  H   H655      1.0  0.8525263457607266  0.8422634396380754  0.804436189490549  1.0000
  H   H656      1.0  0.855815186153248  0.786091918645962  0.8162408871831485  1.0000
  H   H657      1.0  0.931395964708891  0.6897510656038941  0.8402399155187933  1.0000
  H   H658      1.0  0.9818518822168685  0.668627241225004  0.8334296038273636  1.0000
  H   H659      1.0  0.008259739717440612  0.7476018302840666  0.7802128270319201  1.0000
  H   H660      1.0  0.9544589473281616  0.7648201858349917  0.7816343969480922  1.0000
  H   H661      1.0  0.010055514262881395  0.707995080546889  0.9221147861724861  1.0000
  H   H662      1.0  0.021245208812577087  0.6797834654974496  0.8740175502047193  1.0000
  H   H663      1.0  0.04674732144193674  0.7639862686614578  0.828144764172225  1.0000
  H   H664      1.0  0.03944188443623618  0.7920468629263686  0.8770708556891224  1.0000
  H   H665      1.0  0.03491662458878088  0.7053010446685543  0.7480149768541657  1.0000
  H   H666      1.0  0.07617400469795421  0.7208161362369759  0.712969264020425  1.0000
  H   H667      1.0  0.13572812032713027  0.7379557788296383  0.7912689571772993  1.0000
  H   H668      1.0  0.09528006711062488  0.7204100143129836  0.826291055892831  1.0000
  H   H669      1.0  0.07504820259762986  0.6675326789402596  0.8538298405479813  1.0000
  H   H670      1.0  0.0940022201204075  0.6138924734979817  0.8506773557671009  1.0000
  H   H671      1.0  0.03839670140594359  0.5984367901456294  0.7697423270181201  1.0000
  H   H672      1.0  0.016795039322390296  0.6509043243335358  0.7747933869029912  1.0000
  C   C1057     1.0  0.8914601616340538  0.889383938563694  0.7633830449844792  1.0000
  C   C1058     1.0  0.9005818450013756  0.8831475115786611  0.7983484698163099  1.0000
  H   H673      1.0  0.8950801460953413  0.8688159735707515  0.7490610822908174  1.0000
  H   H674      1.0  0.9075277439605149  0.9069612195374119  0.7531675774473348  1.0000
  H   H675      1.0  0.8833300918010258  0.8952457561573985  0.8131568833450739  1.0000
  H   H676      1.0  0.9234032533846523  0.894095572289158  0.8043865998423104  1.0000
  C   C1059     1.0  0.7848617812587648  0.8945646012318209  0.9013343621487062  1.0000
  C   C1060     1.0  0.7549345122650273  0.9132030775341891  0.8943162462170388  1.0000
  H   H677      1.0  0.8010865001844393  0.9102854227193052  0.9139230485658392  1.0000
  H   H678      1.0  0.7977727675519299  0.8880812342432479  0.8791819578569927  1.0000
  H   H679      1.0  0.7528996146401171  0.9347231820736459  0.9083784536104033  1.0000
  H   H680      1.0  0.7343427017112155  0.8988992178821918  0.9003968816558153  1.0000
  C   C1061     1.0  0.8935909626680018  0.739666478761491  0.9640251231695367  1.0000
  C   C1062     1.0  0.8672449666084125  0.7181875338774139  0.9755582585027345  1.0000
  H   H681      1.0  0.9155761727585946  0.728504015809216  0.9731307271508656  1.0000
  H   H682      1.0  0.8920640084549692  0.7636415810005641  0.9745381285961126  1.0000
  H   H683      1.0  0.8746991228033986  0.7091587367934756  0.9988228877620844  1.0000
  H   H684      1.0  0.8674453609768679  0.6964917195394277  0.9616755184077571  1.0000
  C   C1063     1.0  0.5507767135443444  0.8070884051677354  0.11173161715222266  1.0000
  C   C1064     1.0  0.5421560063126659  0.7915815056511543  0.14413561858194024  1.0000
  H   H685      1.0  0.5419654946270983  0.79098341526259  0.09294611383472565  1.0000
  H   H686      1.0  0.5376518014696278  0.8279978042493197  0.10623330586847617  1.0000
  H   H687      1.0  0.5579111031194685  0.7714646429133156  0.14801777961547366  1.0000
  H   H688      1.0  0.5185800663177812  0.7814809016202962  0.1414001591286281  1.0000
  C   C1065     1.0  0.4330956123077637  0.6894993822504167  0.34391601759355706  1.0000
  C   C1066     1.0  0.4234281484412865  0.6632946366149747  0.3204719210358199  1.0000
  H   H689      1.0  0.4581314319143106  0.6871668844051212  0.34834366475771467  1.0000
  H   H690      1.0  0.4203916664364354  0.686166650568283  0.3670861903800716  1.0000
  H   H691      1.0  0.43655371523636616  0.6418424485697036  0.32683356448128165  1.0000
  H   H692      1.0  0.43134919787801257  0.6686784677941339  0.2962556428126537  1.0000
  C   C1067     1.0  0.027381700805756096  0.7610952045601028  0.965708809797827  1.0000
  C   C1068     1.0  0.015305818302260174  0.7720431939984399  0.9332086989069995  1.0000
  H   H693      1.0  0.017951972423787047  0.7372349515447518  0.9718697332385136  1.0000
  H   H694      1.0  0.01784414561618758  0.7767903867035623  0.9843450718882443  1.0000
  H   H695      1.0  0.9896195829594797  0.7729538726536723  0.9337636306849072  1.0000
  H   H696      1.0  0.022294588929316045  0.7964709154646564  0.9303584748391924  1.0000
  C   C1069     1.0  0.3225718175212744  0.7905356911455224  0.16853679535068167  1.0000
  C   C1070     1.0  0.3330348018044755  0.7667261800588673  0.19377202277455935  1.0000
  H   H697      1.0  0.3391052340246303  0.7905929758143416  0.14852737228642043  1.0000
  H   H698      1.0  0.32260447545883314  0.8148239945290373  0.17784075792496493  1.0000
  H   H699      1.0  0.3444268108330159  0.7463750549346572  0.18295321451717897  1.0000
  H   H700      1.0  0.3130055571679573  0.7551707110870343  0.20479320402498952  1.0000
  C   C1071     1.0  0.21528830574660562  0.650275512581132  0.18816437812350595  1.0000
  C   C1072     1.0  0.2510972266817098  0.6493097706226392  0.19451138081567818  1.0000
  H   H701      1.0  0.20906830451185135  0.6306073352378806  0.17246665690299695  1.0000
  H   H702      1.0  0.20165863617078286  0.6458775435652399  0.21047121874830532  1.0000
  H   H703      1.0  0.2635161604414987  0.6689542923174008  0.18348051777678237  1.0000
  H   H704      1.0  0.26179163265830924  0.6293321033189755  0.18218599181657372  1.0000
  C   C1073     1.0  0.43603626207055896  0.5136814678934335  0.35381741735852396  1.0000
  C   C1074     1.0  0.4097892385422476  0.5268392531013175  0.33286224885999866  1.0000
  H   H705      1.0  0.43356877236635666  0.5194260651514349  0.3786027958305233  1.0000
  H   H706      1.0  0.45700568098298067  0.5261393031052256  0.34597989152500974  1.0000
  H   H707      1.0  0.4117548997771535  0.5150391950424186  0.3101879725558698  1.0000
  H   H708      1.0  0.41352054682354117  0.5518982866913649  0.32837556640031895  1.0000
  C   C1075     1.0  0.7743749282195679  0.09701447906497784  0.5767583073681897  1.0000
  C   C1076     1.0  0.7599778179003148  0.12840943036174154  0.5664507447700308  1.0000
  H   H709      1.0  0.7988225895173582  0.09620071470312286  0.5688310478854819  1.0000
  H   H710      1.0  0.7634653054574284  0.07707704409220907  0.5638130477661032  1.0000
  H   H711      1.0  0.7380895174539682  0.13273490364006893  0.5786545210603596  1.0000
  H   H712      1.0  0.7531369444264658  0.12755056968410333  0.5417456542999416  1.0000
  C   C1077     1.0  0.667356824472075  0.26758421753954376  0.4135871119569208  1.0000
  C   C1078     1.0  0.6558342452295388  0.3017537382925586  0.4122788898081511  1.0000
  H   H713      1.0  0.6651659232203347  0.2575734951523324  0.38982658621518523  1.0000
  H   H714      1.0  0.6523689859118008  0.25314075914078743  0.4287804356124891  1.0000
  H   H715      1.0  0.6758529162154518  0.31848638157065684  0.4134194517176381  1.0000
  H   H716      1.0  0.6431181164392987  0.3078079385181944  0.4344596310417152  1.0000
  C   C1079     1.0  0.5492661036546006  0.004444074801640108  0.22407082556595875  1.0000
  C   C1080     1.0  0.5703380413965368  0.02590717589704572  0.2445737837007848  1.0000
  H   H717      1.0  0.5566244656311815  0.005667483138447338  0.1991898099152137  1.0000
  H   H718      1.0  0.5255707739575658  0.013782857399359028  0.2244335384216466  1.0000
  H   H719      1.0  0.564613854569312  0.020898893496249515  0.2700274417180943  1.0000
  H   H720      1.0  0.5638666564580287  0.05069619438454717  0.240597166194416  1.0000
  C   C1081     1.0  0.7432220230807939  0.9696244705528573  0.09378465117232158  1.0000
  C   C1082     1.0  0.7582177629172232  0.9362886265493611  0.09564945808727372  1.0000
  H   H721      1.0  0.7245266416886351  0.9694328398478923  0.07562515812854093  1.0000
  H   H722      1.0  0.7610809882569567  0.9857352820819063  0.08423746318048725  1.0000
  H   H723      1.0  0.7712256643616299  0.9338251397847462  0.07335111854502957  1.0000
  H   H724      1.0  0.7776636099153434  0.9378812432705392  0.11362971997384927  1.0000
  C   C1083     1.0  0.8028902270314506  0.12460404163094388  0.37255994298088085  1.0000
  C   C1084     1.0  0.8303444757704321  0.14788547215920048  0.3797433577400102  1.0000
  H   H725      1.0  0.7913461229596046  0.11998200613230511  0.3946887331543856  1.0000
  H   H726      1.0  0.8120874873293391  0.10193394708911943  0.36385105618546043  1.0000
  H   H727      1.0  0.84495868322829  0.15192341890790254  0.35885667018429057  1.0000
  H   H728      1.0  0.8454174741412221  0.13574262294052455  0.3971162645062544  1.0000
  C   C1085     1.0  0.5780313189471983  0.1708434547116519  0.29362503004418883  1.0000
  C   C1086     1.0  0.5651770458254187  0.19309652934373223  0.2687688092175631  1.0000
  H   H729      1.0  0.5651848362118652  0.14803025980163154  0.2935754403959503  1.0000
  H   H730      1.0  0.5740173135075841  0.18114708202183086  0.3167314447115396  1.0000
  H   H731      1.0  0.5401288929286027  0.1889286159679919  0.26596109056253187  1.0000
  H   H732      1.0  0.5746118667531991  0.18785752163022484  0.24590561996776342  1.0000
  C   C1087     1.0  0.27544779859215607  0.48982730845384415  0.5157654014465749  1.0000
  C   C1088     1.0  0.2600924244427313  0.4590270662762227  0.5255487306204977  1.0000
  H   H733      1.0  0.2986624387667212  0.492507477027068  0.5266916539418055  1.0000
  H   H734      1.0  0.26316018318526463  0.5091958003363375  0.5285902290457963  1.0000
  H   H735      1.0  0.23673957114307034  0.4573999260099853  0.5146720677735056  1.0000
  H   H736      1.0  0.25578038692460847  0.46042110241599293  0.550558443215481  1.0000
  C   C1089     1.0  0.4576422183341698  0.31841301628129476  0.4833196030276277  1.0000
  C   C1090     1.0  0.4576018256374028  0.3024866027215495  0.4503094271834892  1.0000
  H   H737      1.0  0.47402575135216174  0.33806153431547786  0.48430431175693633  1.0000
  H   H738      1.0  0.46618834237254286  0.3010444895664128  0.5004469229644999  1.0000
  H   H739      1.0  0.4801165328781509  0.29022195459624567  0.4475135155875624  1.0000
  H   H740      1.0  0.44013674733087155  0.2830704275328272  0.44946404175161264  1.0000
  C   C1091     1.0  0.20224014814876104  0.627007429213794  0.04092213770480568  1.0000
  C   C1092     1.0  0.18902232182586523  0.5960539309351919  0.029887260265814453  1.0000
  H   H741      1.0  0.22769824096410593  0.6254506983743185  0.03789480775043241  1.0000
  H   H742      1.0  0.1998367795384933  0.6286190844183137  0.06671744045780202  1.0000
  H   H743      1.0  0.1639220533937301  0.5940251830287689  0.03359703823642324  1.0000
  H   H744      1.0  0.19812722117688095  0.5767776116925294  0.044636638499056414  1.0000
  C   C1093     1.0  0.0816980152624609  0.5702416015522247  0.805515354692693  1.0000
  C   C1094     1.0  0.11741937688570694  0.5685468069567001  0.7976636603882534  1.0000
  H   H745      1.0  0.07491099993201253  0.5549877940503872  0.8256912572903266  1.0000
  H   H746      1.0  0.0708825452216802  0.5581720819982491  0.7849923245573894  1.0000
  H   H747      1.0  0.12288033290769233  0.587249976998833  0.7799979385562196  1.0000
  H   H748      1.0  0.12132203464487672  0.5461400307958302  0.7856369899844907  1.0000
  C   C1095     1.0  0.2795343668005362  0.466261606225633  0.7053135668971189  1.0000
  C   C1096     1.0  0.25358760948812487  0.4537979016613871  0.6825495569437964  1.0000
  H   H749      1.0  0.28380667102382096  0.4909576215605326  0.6999342707691449  1.0000
  H   H750      1.0  0.3023571741729966  0.4540693097850491  0.6997477192352951  1.0000
  H   H751      1.0  0.2509640807015528  0.4702187758762848  0.6626404938819227  1.0000
  H   H752      1.0  0.23071487360611662  0.45394457850927067  0.6951028221836162  1.0000
  C   C1097     1.0  0.9681447754577575  0.23870299688038965  0.6214763630202715  1.0000
  C   C1098     1.0  0.9746062972541145  0.25323392480684154  0.6541512183858444  1.0000
  H   H753      1.0  0.9829239713325643  0.2514704884146566  0.6043915484961752  1.0000
  H   H754      1.0  0.9780184389010741  0.21542283933810544  0.6203735836999187  1.0000
  H   H755      1.0  0.9648118227370233  0.27718095388085634  0.6560946603144321  1.0000
  H   H756      1.0  0.9999737591805476  0.2565320477200031  0.6574666405823657  1.0000
  C   C1099     1.0  0.9186710980119628  0.053832553673436555  0.7732891675730879  1.0000
  C   C1100     1.0  0.8857201167976587  0.04864718396705614  0.7875922389721829  1.0000
  H   H757      1.0  0.9355851885024209  0.04159439282674372  0.7891413251266828  1.0000
  H   H758      1.0  0.9206933248431463  0.04210749836926893  0.7497931199552914  1.0000
  H   H759      1.0  0.8836077354563188  0.06029564365157188  0.8103279119836546  1.0000
  H   H760      1.0  0.883947158092655  0.023109088262265542  0.7930896056912009  1.0000
  C   C1101     1.0  0.11522374550324954  0.35933669483503694  0.8343245789074788  1.0000
  C   C1102     1.0  0.13547785909851012  0.3707550746200892  0.8067480116631945  1.0000
  H   H761      1.0  0.1281735949290023  0.35948158897787774  0.857010662270712  1.0000
  H   H762      1.0  0.09577377044742012  0.3755657717030647  0.8390497639610678  1.0000
  H   H763      1.0  0.11945946235687349  0.38379645994362904  0.7903574522144381  1.0000
  H   H764      1.0  0.14405862671729638  0.350573040078711  0.7915098211830296  1.0000
  C   C1103     1.0  0.13272114190913806  0.2647718061831817  0.6704449599499446  1.0000
  C   C1104     1.0  0.1421366472596228  0.29922711408964064  0.668747104850729  1.0000
  H   H765      1.0  0.1523234902611832  0.24927502409959046  0.663899126382454  1.0000
  H   H766      1.0  0.11468351603805092  0.2608561543353386  0.6523730752847188  1.0000
  H   H767      1.0  0.13887406524151064  0.312288840476204  0.6918228211644082  1.0000
  H   H768      1.0  0.1256767300150884  0.31142151605794494  0.653386120955878  1.0000
  C   C1105     1.0  0.3110769661192366  0.9172529713069688  0.3531963660496315  1.0000
  C   C1106     1.0  0.34520336493780795  0.9160329831888246  0.3640919201911906  1.0000
  H   H769      1.0  0.30184953448605406  0.8942030306136445  0.3581482466380254  1.0000
  H   H770      1.0  0.31084783795916593  0.9191572325300695  0.32723972731447365  1.0000
  H   H771      1.0  0.3472498381986054  0.9119611535122109  0.3898596459806776  1.0000
  H   H772      1.0  0.35594536255454456  0.9391486078548688  0.35942813184494454  1.0000
  C   C1107     1.0  0.29999206150018065  0.25818124895875905  0.39949892903352646  1.0000
  C   C1108     1.0  0.3143258695199257  0.22509569464279436  0.3968919303832705  1.0000
  H   H773      1.0  0.2741815940973001  0.256359148980929  0.3990644292584838  1.0000
  H   H774      1.0  0.30662389482807323  0.2709009901545086  0.3778660353424074  1.0000
  H   H775      1.0  0.3226121532170866  0.21651647842390176  0.4202155949381425  1.0000
  H   H776      1.0  0.3359512359747571  0.2279290577709079  0.38352633947706655  1.0000
  C   C1109     1.0  0.859072632892058  0.39524925838146996  0.3771599732079631  1.0000
  C   C1110     1.0  0.8647544023590373  0.3815309827093628  0.4096600840987906  1.0000
  H   H777      1.0  0.8357157370848836  0.387963829912729  0.36919493113612106  1.0000
  H   H778      1.0  0.8564150398955789  0.42117216066907404  0.38026522975242566  1.0000
  H   H779      1.0  0.8584644510127618  0.3999502385157853  0.4270873033369151  1.0000
  H   H780      1.0  0.8898776743460357  0.37712995913255587  0.4137571336080245  1.0000
  C   C1111     1.0  0.09265229414780526  0.20777197459072014  0.29389423099176964  1.0000
  C   C1112     1.0  0.09638051678200539  0.19625270393996241  0.3279103682716048  1.0000
  H   H781      1.0  0.07130573994769313  0.19616857046257388  0.28561512114775006  1.0000
  H   H782      1.0  0.11252857983958475  0.19865119470707335  0.2778696903752503  1.0000
  H   H783      1.0  0.09122830479408515  0.21556761999478857  0.345077832209432  1.0000
  H   H784      1.0  0.07782157103990286  0.1795191837452063  0.3337265255864422  1.0000
  C   C1113     1.0  0.19281750307394854  0.4255961389326633  0.3302930327988768  1.0000
  C   C1114     1.0  0.16333185691619295  0.4183081360599098  0.35000373726779616  1.0000
  H   H785      1.0  0.186335108059098  0.4335655330267047  0.30679462376925937  1.0000
  H   H786      1.0  0.20465833945374703  0.403598433271715  0.3243800575993831  1.0000
  H   H787      1.0  0.15390866300816303  0.43960519933775594  0.3614046335390245  1.0000
  H   H788      1.0  0.17055883669251778  0.40295956599305977  0.3697758384440586  1.0000
  C   C1115     1.0  0.31787710198643204  0.33959073573241894  0.9147448198795068  1.0000
  C   C1116     1.0  0.3237887060912916  0.37453562431148063  0.9228114026596469  1.0000
  H   H789      1.0  0.3353959049387209  0.3328942868426524  0.8960424382581049  1.0000
  H   H790      1.0  0.2946262714655427  0.33758581589073616  0.9031455650153243  1.0000
  H   H791      1.0  0.31870603901948397  0.38043263022050283  0.947925017374749  1.0000
  H   H792      1.0  0.34899819329570136  0.378959178121079  0.9193826326957232  1.0000
  C   C1117     1.0  0.1406299919111858  0.28250071723843867  0.1520215533577826  1.0000
  C   C1118     1.0  0.12634229829598523  0.31475262757783135  0.14576499273835025  1.0000
  H   H793      1.0  0.12898842474578026  0.26446553412986185  0.1367514838180357  1.0000
  H   H794      1.0  0.1347447761441732  0.27484246021651065  0.17585103232468802  1.0000
  H   H795      1.0  0.14304616896031688  0.3317689212433528  0.13596017471685745  1.0000
  H   H796      1.0  0.10934210646391596  0.3141766544098701  0.12667840941369052  1.0000
  C   C1119     1.0  0.2566581594842213  0.1330176060321932  0.1887986533385954  1.0000
  C   C1120     1.0  0.22293817753809375  0.13123324792060664  0.20047016740449708  1.0000
  H   H797      1.0  0.2737734889861816  0.12739393001768  0.20808713737394074  1.0000
  H   H798      1.0  0.26190997897310925  0.11457198593296919  0.1707175591672681  1.0000
  H   H799      1.0  0.21277590958238085  0.1084656658367726  0.19282627734029528  1.0000
  H   H800      1.0  0.20837800120680905  0.1487462472210202  0.1894631546249922  1.0000
  C   C1121     1.0  0.36304148969407635  0.346770181356414  0.2063914075453639  1.0000
  C   C1122     1.0  0.35128059782550286  0.35775934542977367  0.23952980805137639  1.0000
  H   H801      1.0  0.3859387366732385  0.3346212422328259  0.2087778503315493  1.0000
  H   H802      1.0  0.36837805372117816  0.36679272153380504  0.19157590978113714  1.0000
  H   H803      1.0  0.33762245955181686  0.3390482343447919  0.2500428134779523  1.0000
  H   H804      1.0  0.3357143521905091  0.37785808562708195  0.2359586449546534  1.0000
  C   C1123     1.0  0.7792045000338795  0.6779714533023992  0.7716716004757824  1.0000
  C   C1124     1.0  0.8111261280892647  0.6794792024986595  0.7550590683158629  1.0000
  H   H805      1.0  0.766440551649894  0.699802032909293  0.769624256427076  1.0000
  H   H806      1.0  0.7828970433621044  0.6746193701952266  0.7975385055617465  1.0000
  H   H807      1.0  0.8085705878223186  0.6876393289251608  0.7304838554959223  1.0000
  H   H808      1.0  0.8204483345336702  0.655475151426621  0.7514956978781488  1.0000
  C   C1125     1.0  0.8057682047048008  0.3323865051275704  0.6828470948332277  1.0000
  C   C1126     1.0  0.7743146138860785  0.34854120096210606  0.6775315568244178  1.0000
  H   H809      1.0  0.8055287838514604  0.32127945437174904  0.7064942728075609  1.0000
  H   H810      1.0  0.8241092842884297  0.3513897785245393  0.6842167136893406  1.0000
  H   H811      1.0  0.7571467036762423  0.32973440273193805  0.676712146922571  1.0000
  H   H812      1.0  0.772601735284737  0.3596037863198594  0.6548785332266768  1.0000
  C   C1127     1.0  0.7830713532780273  0.2579829609921956  0.18419083045250428  1.0000
  C   C1128     1.0  0.7506044459398852  0.24418288116945844  0.17865119446189234  1.0000
  H   H813      1.0  0.8008223470506205  0.23907081143208575  0.18711354986321252  1.0000
  H   H814      1.0  0.7831223558352834  0.2717383968637494  0.20657087484375103  1.0000
  H   H815      1.0  0.7333031464598248  0.26338360595562077  0.178409858173798  1.0000
  H   H816      1.0  0.7494977601964482  0.23505503070728356  0.15370429542134462  1.0000
  C   C1129     1.0  0.9524368510018263  0.31822386768869165  0.13124467145173407  1.0000
  C   C1130     1.0  0.9522975791280334  0.30460686415599  0.16510283028075204  1.0000
  H   H817      1.0  0.9641202588909485  0.300219968112751  0.11658006790286185  1.0000
  H   H818      1.0  0.9671503565848752  0.3390635350359172  0.12980633551163356  1.0000
  H   H819      1.0  0.9749281881806264  0.2933756872362141  0.1705713877755554  1.0000
  H   H820      1.0  0.9343074120276331  0.2853512946713563  0.1662256816015824  1.0000
  C   C1131     1.0  0.8253271968325667  0.4608898234604582  0.8753824462371902  1.0000
  C   C1132     1.0  0.847653954694362  0.43342463302347845  0.8821408068685603  1.0000
  H   H821      1.0  0.8408098765639114  0.48001082965979586  0.8672946107506623  1.0000
  H   H822      1.0  0.8140202802096234  0.46933403553871633  0.8965713945059829  1.0000
  H   H823      1.0  0.8603739589665843  0.4277373874249022  0.8597664298656837  1.0000
  H   H824      1.0  0.865690509529934  0.4423983733810244  0.8985171978463914  1.0000
  C   C1133     1.0  0.8434401085089973  0.19994542077307312  0.8582315121821091  1.0000
  C   C1134     1.0  0.8457202671877236  0.2037406500019975  0.8944107026898741  1.0000
  H   H825      1.0  0.8243384916903912  0.21580466738069515  0.8501979891674615  1.0000
  H   H826      1.0  0.832068914922607  0.1769247522853957  0.8536243977195642  1.0000
  H   H827      1.0  0.8691151556779416  0.1990057332514718  0.9031502878389661  1.0000
  H   H828      1.0  0.8315900003183675  0.1843228842407287  0.9050535857665986  1.0000
  C   C1135     1.0  0.35533203536336533  0.23881398198503  0.7374594660148139  1.0000
  C   C1136     1.0  0.3671072534148758  0.2519198778687888  0.7060196290315632  1.0000
  H   H829      1.0  0.3397161668373491  0.2566973953203042  0.748843832403296  1.0000
  H   H830      1.0  0.34117108930123424  0.21693407910246826  0.7323210338925701  1.0000
  H   H831      1.0  0.37611353706343004  0.23331953222947613  0.6900800992405957  1.0000
  H   H832      1.0  0.3868227771635527  0.26748372480412563  0.7102323877200204  1.0000
  C   C1137     1.0  0.46533561734603085  0.24295283340834767  0.9857666418044163  1.0000
  C   C1138     1.0  0.47354089113239595  0.258882227985573  0.954629065534239  1.0000
  H   H833      1.0  0.47514318708670494  0.21932534324088127  0.9864963180570695  1.0000
  H   H834      1.0  0.4795027912524241  0.2540462233006523  0.005219952384859505  1.0000
  H   H835      1.0  0.49916631525337374  0.2617353625885404  0.9527399360775317  1.0000
  H   H836      1.0  0.46524827399109553  0.2825774555383967  0.9563481733398426  1.0000
  C   C1139     1.0  0.6469415231085988  0.28383173659030236  0.9335392965619231  1.0000
  C   C1140     1.0  0.6578897261320575  0.3174194519068072  0.925862346732229  1.0000
  H   H837      1.0  0.6678668513306755  0.2698627894398204  0.9379834736088271  1.0000
  H   H838      1.0  0.6339811924363776  0.28412189099154983  0.956034105567665  1.0000
  H   H839      1.0  0.6465419620688138  0.33418939916669155  0.9421088600599116  1.0000
  H   H840      1.0  0.6478299996925408  0.32489472520637414  0.9024347800572381  1.0000
  C   C1141     1.0  0.5841604311862091  0.38588184369197037  0.7884777684050143  1.0000
  C   C1142     1.0  0.6023457438635645  0.4063399719081214  0.8108426997606075  1.0000
  H   H841      1.0  0.5918193867856552  0.3881769840045054  0.7636498845202392  1.0000
  H   H842      1.0  0.5600483090586326  0.3951009504980987  0.7880149316881211  1.0000
  H   H843      1.0  0.6010087267445777  0.39758208766792247  0.8358901949447248  1.0000
  H   H844      1.0  0.5903815643069485  0.4289241389118453  0.8127979487482995  1.0000
  C   C1143     1.0  0.6792169806980545  0.16272421179968566  0.7426451263734754  1.0000
  C   C1144     1.0  0.6444167741154151  0.1591005730613585  0.7346517473597827  1.0000
  H   H845      1.0  0.682453889538859  0.1648294847457789  0.7685734281667824  1.0000
  H   H846      1.0  0.6886411268462942  0.18501845064248884  0.7340165275799648  1.0000
  H   H847      1.0  0.6399870480029283  0.1621970556645842  0.7090068149849816  1.0000
  H   H848      1.0  0.6362973977082014  0.13500015927443498  0.7409378256269761  1.0000
  C   C1145     1.0  0.12494824991576901  0.8663398949640694  0.22475870482938232  1.0000
  C   C1146     1.0  0.11070867531306604  0.8606527061933116  0.1913097786689235  1.0000
  H   H849      1.0  0.141381939803221  0.8858859919351683  0.22426139149990412  1.0000
  H   H850      1.0  0.13924861231759017  0.8460775262753599  0.23006479719090883  1.0000
  H   H851      1.0  0.10733714730641634  0.8834730279894228  0.17946115871645557  1.0000
  H   H852      1.0  0.086531620937967  0.8521360705391636  0.19277786839796715  1.0000
  C   C1147     1.0  0.06885339637190496  0.016490062262835226  0.343039933808009  1.0000
  C   C1148     1.0  0.10091084629912324  0.02653980720092486  0.3292067833612701  1.0000
  H   H853      1.0  0.05009776686437972  0.030992480427607605  0.3321939693146885  1.0000
  H   H854      1.0  0.06666684906428226  0.022918005428779642  0.3680260322847835  1.0000
  H   H855      1.0  0.10247771427104027  0.01823957274340393  0.3044143206538082  1.0000
  H   H856      1.0  0.0997756446218912  0.052300076417739504  0.3264533771781193  1.0000
  C   C1149     1.0  0.7963231058180353  0.9266137558057989  0.27282807613766275  1.0000
  C   C1150     1.0  0.8301901502268402  0.9310864018992611  0.26210490505902817  1.0000
  H   H857      1.0  0.7955303670140411  0.9280737540505847  0.2986595600463137  1.0000
  H   H858      1.0  0.789100405470743  0.9022761187871785  0.26651129951679786  1.0000
  H   H859      1.0  0.8389937441546627  0.9541001534887412  0.2691135753434121  1.0000
  H   H860      1.0  0.8319658883748532  0.9304631634919308  0.23615535055933307  1.0000
  C   C1151     1.0  0.6489357183272111  0.8572866336871958  0.6820631061086943  1.0000
  C   C1152     1.0  0.6617592283105909  0.8908191348655999  0.6762351417347524  1.0000
  H   H861      1.0  0.6228400318778137  0.859134295254462  0.6817301470419496  1.0000
  H   H862      1.0  0.6531024149198947  0.8505434793248633  0.7071767208237965  1.0000
  H   H863      1.0  0.6424558008480955  0.9080053430621579  0.6784690373173087  1.0000
  H   H864      1.0  0.6693329374879468  0.8935626598899366  0.6514379562036486  1.0000
  C   C1153     1.0  0.8326824649168398  0.7670711873512306  0.43750349087883483  1.0000
  C   C1154     1.0  0.8448290562443768  0.8004720132826864  0.4423986975835275  1.0000
  H   H865      1.0  0.8461441540106612  0.7522025232406959  0.4531525670158336  1.0000
  H   H866      1.0  0.8373740917573625  0.7589301943996186  0.4125173924020604  1.0000
  H   H867      1.0  0.8253247242551887  0.8163782549660339  0.4485525367887514  1.0000
  H   H868      1.0  0.8604894502227725  0.8026366509696696  0.462921727718831  1.0000
  C   C1155     1.0  0.6297458071599612  0.8479873856811864  0.35782709463038515  1.0000
  C   C1156     1.0  0.6137766316347443  0.8334565945129465  0.3872691772131678  1.0000
  H   H869      1.0  0.6475856418485894  0.8302396185572283  0.34939449301800807  1.0000
  H   H870      1.0  0.6418750102111409  0.8691314953721092  0.3660707832970915  1.0000
  H   H871      1.0  0.5935637449638745  0.8191620373666602  0.3794954094988174  1.0000
  H   H872      1.0  0.6032075346695711  0.8519778058186347  0.4020988434483198  1.0000
  C   C1157     1.0  0.7431830817190161  0.6439292551789613  0.6013689413654436  1.0000
  C   C1158     1.0  0.7326472408118226  0.6095737051876353  0.5992247794320809  1.0000
  H   H873      1.0  0.7607334052869489  0.6462294569994359  0.619898939923921  1.0000
  H   H874      1.0  0.7547946605661514  0.6490686019405362  0.5779697116323033  1.0000
  H   H875      1.0  0.7511780824345072  0.5960386160899174  0.5887849777719523  1.0000
  H   H876      1.0  0.7126926049924642  0.6072620867706221  0.5832403828165165  1.0000
  C   C1159     1.0  0.6650286138483851  0.40935251983184395  0.2091625243171713  1.0000
  C   C1160     1.0  0.6299016079756178  0.41705411978523604  0.21468964482513261  1.0000
  H   H877      1.0  0.6656131804771899  0.39414732473041375  0.18774286611347812  1.0000
  H   H878      1.0  0.674431602048775  0.39354479321577784  0.22673426195873392  1.0000
  H   H879      1.0  0.6172852110058394  0.4183566261533584  0.19179599336284356  1.0000
  H   H880      1.0  0.6282307633480092  0.44057318817470087  0.22560574324953345  1.0000
  C   C1161     1.0  0.7829808311333382  0.48459820934283837  0.06182483130611229  1.0000
  C   C1162     1.0  0.7691778846073036  0.45423612898983873  0.04686339829135496  1.0000
  H   H881      1.0  0.7726476813796913  0.5046017762885243  0.04873953998304736  1.0000
  H   H882      1.0  0.8092530619112314  0.4854319564907349  0.05785600645875243  1.0000
  H   H883      1.0  0.7706866523476513  0.45651584972042347  0.02090681111099224  1.0000
  H   H884      1.0  0.7438495571916088  0.4535652390320673  0.05203607088500153  1.0000
  C   C1163     1.0  0.9060939526240124  0.5202667522632527  0.2620576768226105  1.0000
  C   C1164     1.0  0.8727869022749293  0.5249519319320488  0.27477151806625033  1.0000
  H   H885      1.0  0.9216136894206804  0.5353537166895916  0.27651187857824194  1.0000
  H   H886      1.0  0.9077782597339806  0.5288549964056783  0.23809643107609976  1.0000
  H   H887      1.0  0.8696760022820585  0.5501310346772602  0.2779523397889812  1.0000
  H   H888      1.0  0.8699206085758474  0.5150206846748436  0.29836910639234493  1.0000
  C   C1165     1.0  0.8796432601735125  0.6974043855061696  0.2542886319319019  1.0000
  C   C1166     1.0  0.8913127097367421  0.7024051576206706  0.28896832593340543  1.0000
  H   H889      1.0  0.8789009354386611  0.7196079529573097  0.2411143153831896  1.0000
  H   H890      1.0  0.8975059717040912  0.6842394546712536  0.24072704384456464  1.0000
  H   H891      1.0  0.9129766060004811  0.6899712448493848  0.29309135097266903  1.0000
  H   H892      1.0  0.8735346644329987  0.6939624520176901  0.30546514891410165  1.0000
  C   C1167     1.0  0.7547530679478504  0.6224984747296736  0.3957301157673954  1.0000
  C   C1168     1.0  0.7209937830054711  0.6248803693947593  0.4067059579108646  1.0000
  H   H893      1.0  0.7644403458896689  0.5990886494229395  0.4023940199259304  1.0000
  H   H894      1.0  0.7684170001410999  0.6386380361408792  0.40968369821699946  1.0000
  H   H895      1.0  0.7162473450738364  0.6055925651077901  0.4224825502861912  1.0000
  H   H896      1.0  0.7052861858383022  0.6200808683707383  0.3866929927288721  1.0000
  C   C1169     1.0  0.667151944713029  0.7473404638774207  0.21107148963317401  1.0000
  C   C1170     1.0  0.6571827666509649  0.7126817890461412  0.21046814891293816  1.0000
  H   H897      1.0  0.6846250351075921  0.7506521911291312  0.22945389995284615  1.0000
  H   H898      1.0  0.6465751237575488  0.7601601943843095  0.21961909200122814  1.0000
  H   H899      1.0  0.646141600016855  0.7049002231603361  0.18875732863172992  1.0000
  H   H900      1.0  0.6376549537981777  0.7100914930769647  0.22686791786779598  1.0000
  C   C1171     1.0  0.6415299656250019  0.7265029776590576  0.9032730812536519  1.0000
  C   C1172     1.0  0.6491813412358433  0.7065249404045022  0.8742867511522999  1.0000
  H   H901      1.0  0.627557068641761  0.7140070826257037  0.9211064633249685  1.0000
  H   H902      1.0  0.6256173621172176  0.7453018927385737  0.8966941879206689  1.0000
  H   H903      1.0  0.6686983168850668  0.7173601314059221  0.8613462143738553  1.0000
  H   H904      1.0  0.6580728440230631  0.6841047537112874  0.8829743852413325  1.0000
  C   C1173     1.0  0.3088952754161947  0.6753451783174205  0.8927293774734046  1.0000
  C   C1174     1.0  0.34263869729645624  0.664239289419872  0.8860300521375565  1.0000
  H   H905      1.0  0.30228083192117516  0.6919492185006023  0.8739490692619135  1.0000
  H   H906      1.0  0.30837730384877043  0.6897972901865752  0.914985683885237  1.0000
  H   H907      1.0  0.35429906510981474  0.6548924364537553  0.9079652065417486  1.0000
  H   H908      1.0  0.3412027534925342  0.6440523965726525  0.8702676282331553  1.0000
  C   C1175     1.0  0.5486730278080737  0.5622122119369024  0.7575668876696418  1.0000
  C   C1176     1.0  0.5773783199729112  0.5486534844478372  0.7742927675969637  1.0000
  H   H909      1.0  0.5486766581303452  0.5581744775819252  0.731610248934484  1.0000
  H   H910      1.0  0.5273494652192174  0.5499959328442612  0.7665378911771803  1.0000
  H   H911      1.0  0.5760540836853458  0.5514435112358853  0.8005988952816122  1.0000
  H   H912      1.0  0.5749645374409761  0.5230125127182232  0.7716409021221109  1.0000
  C   C1177     1.0  0.5296501306715751  0.7673319215440004  0.6419214665654859  1.0000
  C   C1178     1.0  0.5332749456980252  0.7795930548664638  0.6765728236251388  1.0000
  H   H913      1.0  0.5181797474444061  0.7858725899497782  0.6283787697727157  1.0000
  H   H914      1.0  0.5128904580834603  0.7477342089803526  0.6411303936054897  1.0000
  H   H915      1.0  0.5130069430390091  0.7944401752603151  0.6810122778484009  1.0000
  H   H916      1.0  0.5529517637171301  0.7962376950210717  0.676527956800542  1.0000
  C   C1179     1.0  0.17726358789168148  0.14641082477584555  0.8761451822553358  1.0000
  C   C1180     1.0  0.14588527337493304  0.13438229891385178  0.8624631621651334  1.0000
  H   H917      1.0  0.17430725429933813  0.15500198156720396  0.9009258379036933  1.0000
  H   H918      1.0  0.1853380039373668  0.16615361135286263  0.8627984826436988  1.0000
  H   H919      1.0  0.13282812099132513  0.12362778392674795  0.8819684238056359  1.0000
  H   H920      1.0  0.1504480968360508  0.113798241648071  0.846379586253092  1.0000
  C   C1181     1.0  0.2813069606002093  0.09162989369261763  0.02132950382693055  1.0000
  C   C1182     1.0  0.26436446256402385  0.12348861026562953  0.026286107238966405  1.0000
  H   H921      1.0  0.26788748907532295  0.07416469587032759  0.03535392863116127  1.0000
  H   H922      1.0  0.3052335226538817  0.09136610489812848  0.030564985458408245  1.0000
  H   H923      1.0  0.2587197207164461  0.12375908764244858  0.05199025949567638  1.0000
  H   H924      1.0  0.2412063753764241  0.12275356947641802  0.01426179824702456  1.0000
  C   C1183     1.0  0.4246370451065523  0.06621740843784309  0.8226001692167892  1.0000
  C   C1184     1.0  0.3931701541073193  0.054508520487878534  0.809914664915  1.0000
  H   H925      1.0  0.441376112657739  0.055258979143190494  0.8060750092942425  1.0000
  H   H926      1.0  0.43058538187163997  0.056424477625610876  0.845685331177752  1.0000
  H   H927      1.0  0.395065801433825  0.030011935968799364  0.8030878233408242  1.0000
  H   H928      1.0  0.39011872575185275  0.06768252298544394  0.7873348450837065  1.0000
  C   C1185     1.0  0.42816473209378714  0.9105261966849828  0.8391701959639328  1.0000
  C   C1186     1.0  0.43280327549882985  0.8884500782016662  0.8673560074580052  1.0000
  H   H929      1.0  0.43969449338038424  0.8998453273939242  0.818144185110781  1.0000
  H   H930      1.0  0.44071750450378466  0.9325231632466704  0.8437442506609852  1.0000
  H   H931      1.0  0.4561053479844207  0.8935937757680146  0.8776682928798059  1.0000
  H   H932      1.0  0.4171834095716558  0.8945810493351589  0.8864881660308079  1.0000
  C   C1187     1.0  0.22986184543128094  0.8114215070810623  0.892070543575378  1.0000
  C   C1188     1.0  0.21458904425016548  0.8406332233836209  0.877340056636703  1.0000
  H   H933      1.0  0.2514271277496716  0.8177985271189517  0.9045104610477953  1.0000
  H   H934      1.0  0.23895233088712622  0.795541914361454  0.8736822297261536  1.0000
  H   H935      1.0  0.2023454711902027  0.8552604613124797  0.8953245690645562  1.0000
  H   H936      1.0  0.195087785051878  0.8330751561582869  0.8611100731917667  1.0000
  C   C1189     1.0  0.25059627064436446  0.7559025066227164  0.43662032285782415  1.0000
  C   C1190     1.0  0.22849887383076622  0.7390020464497893  0.41283854440970064  1.0000
  H   H937      1.0  0.26754885353742713  0.7701129980880272  0.42298316959221854  1.0000
  H   H938      1.0  0.26506463955173726  0.7389333685552594  0.4500024436467742  1.0000
  H   H939      1.0  0.2177436346534249  0.7563084372371464  0.39731698451102954  1.0000
  H   H940      1.0  0.2087830349964833  0.7286190466240126  0.4254650134159677  1.0000
  C   C1191     1.0  0.210654463179596  0.9955661423660991  0.5308099561574273  1.0000
  C   C1192     1.0  0.22857547212226312  0.968697894910836  0.5460741221676221  1.0000
  H   H941      1.0  0.21751236031405927  0.018442312902012814  0.5416086924143303  1.0000
  H   H942      1.0  0.1850539293027485  0.9927989438349347  0.5361798066381177  1.0000
  H   H943      1.0  0.22792888052767202  0.971033198312109  0.5719174131353774  1.0000
  H   H944      1.0  0.253664536912642  0.97232029891611  0.5410655676955269  1.0000
  C   C1193     1.0  0.05806089387564024  0.8153282058916159  0.47803712478431  1.0000
  C   C1194     1.0  0.05709075363508982  0.802095810371401  0.4438486044415503  1.0000
  H   H945      1.0  0.04608842230512291  0.797866334896177  0.4926471797201198  1.0000
  H   H946      1.0  0.04285041667127937  0.8363906145017105  0.48149423169008426  1.0000
  H   H947      1.0  0.07789158806034242  0.7868447127716193  0.43862988431739647  1.0000
  H   H948      1.0  0.037853850239628055  0.7856207114488348  0.4445593893996364  1.0000
  C   C1195     1.0  0.25863110014612234  0.9784199506685035  0.6774465459988659  1.0000
  C   C1196     1.0  0.2928853576050854  0.9684953268791444  0.6858933160821682  1.0000
  H   H949      1.0  0.2595737267493799  0.9944022415253378  0.6570533935137111  1.0000
  H   H950      1.0  0.24748807963303732  0.9917273595170075  0.6968124843419362  1.0000
  H   H951      1.0  0.30903291205140326  0.9875303439313374  0.6811185413803406  1.0000
  H   H952      1.0  0.30038584394047696  0.9494582637082597  0.6687896102635049  1.0000
  C   C1197     1.0  0.3648944132287589  0.802723676792221  0.7007253437291411  1.0000
  C   C1198     1.0  0.3543081695852283  0.8367209058838319  0.7022319244708651  1.0000
  H   H953      1.0  0.38032508814421007  0.7986423763157268  0.6808965686691775  1.0000
  H   H954      1.0  0.3443128215230009  0.7874940434595551  0.6955562132532259  1.0000
  H   H955      1.0  0.3703459012405566  0.8496054364833553  0.6870480464625806  1.0000
  H   H956      1.0  0.3562219231722338  0.8474529787545954  0.7257610318541542  1.0000
  C   C1199     1.0  0.13240197207594628  0.74558527015698  0.7290788154624963  1.0000
  C   C1200     1.0  0.13853666796916395  0.7798354823711088  0.7387440740453748  1.0000
  H   H957      1.0  0.15359543715853977  0.7312342873289354  0.7305783119687576  1.0000
  H   H958      1.0  0.12397468787031636  0.7435842629298222  0.7035472308550976  1.0000
  H   H959      1.0  0.11618962464061354  0.7918580774023604  0.7398492147775485  1.0000
  H   H960      1.0  0.14762369353431673  0.7805143867254265  0.7626415616727217  1.0000
