data_image0
_chemical_formula_sum              "C600 H480"
_cell_length_a       39.93906306576037
_cell_length_b       41.14153562096608
_cell_length_c       30.85273028643189
_cell_angle_alpha    82.51939999996736
_cell_angle_beta     92.32459999923299
_cell_angle_gamma    120.2950999997791

_space_group_name_H-M_alt    "P 1"
_space_group_IT_number       1

loop_
  _space_group_symop_operation_xyz
  'x, y, z'

loop_
  _atom_site_type_symbol
  _atom_site_label
  _atom_site_symmetry_multiplicity
  _atom_site_fract_x
  _atom_site_fract_y
  _atom_site_fract_z
  _atom_site_occupancy
  C   C1        1.0  0.5392492889218475  0.1690632323649711  0.015880052563581038  1.0000
  C   C2        1.0  0.5399242130582383  0.1901635366773975  0.9777062043397455  1.0000
  C   C3        1.0  0.5073791907518218  0.19089245211352437  0.9629663560593831  1.0000
  C   C4        1.0  0.47237096234062464  0.1693315985788454  0.986762037463403  1.0000
  C   C5        1.0  0.4728320998028315  0.1508413482478645  0.027576238274473405  1.0000
  C   C6        1.0  0.5049808577764712  0.1488022191574682  0.0408503432217335  1.0000
  H   H1        1.0  0.5661767766570258  0.2057178608183573  0.9566805809551325  1.0000
  H   H2        1.0  0.5078411681746037  0.2081313761520368  0.9335389864506183  1.0000
  H   H3        1.0  0.4465172554149301  0.13389236941055752  0.04896723460115038  1.0000
  H   H4        1.0  0.5017651744373643  0.13052411846275852  0.06994739894624778  1.0000
  C   C7        1.0  0.4043087608186613  0.09334944489723163  0.9708546440674226  1.0000
  C   C8        1.0  0.3981357805154591  0.12225237375826811  0.9785303538331229  1.0000
  C   C9        1.0  0.3602841563847064  0.113176563539841  0.9854832975748692  1.0000
  C   C10       1.0  0.33099511073592974  0.07580186371303389  0.9877987651991197  1.0000
  C   C11       1.0  0.33755297680203644  0.04747695010486064  0.9806365136495314  1.0000
  C   C12       1.0  0.3745894094347133  0.05669431758306698  0.9712176622966483  1.0000
  C   C13       1.0  0.43194689164812683  0.16493446759128835  0.9696282311308493  1.0000
  C   C14       1.0  0.4273385788466963  0.17405739063890474  0.919054232061063  1.0000
  C   C15       1.0  0.40241825377378115  0.18717031227911027  0.9053576523854121  1.0000
  C   C16       1.0  0.4011277910136865  0.1990543243781196  0.8632606195332206  1.0000
  C   C17       1.0  0.42385291996502816  0.19691317332608155  0.8319821839988546  1.0000
  C   C18       1.0  0.44654574743275727  0.1813704390300598  0.8441318481571743  1.0000
  C   C19       1.0  0.44651278843069825  0.16738144126341747  0.8874520235114416  1.0000
  C   C20       1.0  0.41221560151066877  0.18745234464809488  0.03485530974431335  1.0000
  C   C21       1.0  0.4134026575920109  0.21632206626010533  0.05503062015956889  1.0000
  C   C22       1.0  0.4377793905581312  0.2545987492420286  0.03967952767161816  1.0000
  C   C23       1.0  0.4554289583848705  0.26151882655714115  0.9995461659142433  1.0000
  C   C24       1.0  0.45455000985829497  0.2336403397363421  0.9789980259662695  1.0000
  C   C25       1.0  0.43211987592443313  0.19556661118479565  0.9962135931612615  1.0000
  C   C26       1.0  0.44026581769948137  0.288097885656822  0.06410345954261346  1.0000
  C   C27       1.0  0.35459284680725167  0.3061354243703497  0.9882926008082465  1.0000
  C   C28       1.0  0.3432879644169925  0.27951210961888107  0.024264138441446027  1.0000
  C   C29       1.0  0.36965011401516  0.27292798615106717  0.04772283427484064  1.0000
  C   C30       1.0  0.4087747993354278  0.2942445562694286  0.03662265254677794  1.0000
  C   C31       1.0  0.4191728508835588  0.31971767103442555  0.9980646590868628  1.0000
  C   C32       1.0  0.3926404682657414  0.3264801747618774  0.9746450776500586  1.0000
  C   C33       1.0  0.48257343248223006  0.32681937247830306  0.061626759497634846  1.0000
  C   C34       1.0  0.5170367802891225  0.32596056329082757  0.05823662709749643  1.0000
  C   C35       1.0  0.551991928204221  0.35873213581024316  0.05370936462256722  1.0000
  C   C36       1.0  0.5548481057675474  0.39309762163309003  0.05534883343617844  1.0000
  C   C37       1.0  0.5216745663774097  0.3947059662458716  0.06174187879194786  1.0000
  C   C38       1.0  0.486501128159511  0.3616084578133862  0.06470783583775679  1.0000
  C   C39       1.0  0.41179506543423144  0.28573702318209  0.14065877139111826  1.0000
  C   C40       1.0  0.4012251531436597  0.26929159848790196  0.1828159802380643  1.0000
  C   C41       1.0  0.41505941183175066  0.24594094166931502  0.2026711151160118  1.0000
  C   C42       1.0  0.4411576753113156  0.24147609598005135  0.18061890234262443  1.0000
  C   C43       1.0  0.44978202026099023  0.2558938149975229  0.13788544293721383  1.0000
  C   C44       1.0  0.43411548712559916  0.2768103394206759  0.11630319160112136  1.0000
  H   H5        1.0  0.4338417316042904  0.09908256130841904  0.9640096246640948  1.0000
  H   H6        1.0  0.35171862548582705  0.13417946268068068  0.9874063130594162  1.0000
  H   H7        1.0  0.30208818840970486  0.06918855643953653  0.9953240349779336  1.0000
  H   H8        1.0  0.3807829373745318  0.03480409935401663  0.9681598060414589  1.0000
  H   H9        1.0  0.3842100994066741  0.18954666994031993  0.9281035243157253  1.0000
  H   H10       1.0  0.3844068793957981  0.2128310630723376  0.8547182446256752  1.0000
  H   H11       1.0  0.4654057784948222  0.17971362509341288  0.8207482414998429  1.0000
  H   H12       1.0  0.4637361738040636  0.153967241097006  0.8979076026000414  1.0000
  H   H13       1.0  0.3935360421819417  0.15858542484391677  0.05024597448968416  1.0000
  H   H14       1.0  0.3956206563521582  0.20840781694303467  0.08456198958535499  1.0000
  H   H15       1.0  0.47231206710312  0.2897865939627479  0.9831056916951658  1.0000
  H   H16       1.0  0.4708221665691337  0.24085092654316034  0.9497080146064011  1.0000
  H   H17       1.0  0.312595356924741  0.26220837670936303  0.03326816788266258  1.0000
  H   H18       1.0  0.3595266638427771  0.2525111877732041  0.07653765150221818  1.0000
  H   H19       1.0  0.44931351454391216  0.3370468801733327  0.985901913190553  1.0000
  H   H20       1.0  0.40308760683567807  0.34895056260063834  0.9487530477331226  1.0000
  H   H21       1.0  0.5159342789268069  0.298700473014564  0.060013127116554106  1.0000
  H   H22       1.0  0.5779832952131037  0.3577098342172687  0.050423232039450226  1.0000
  H   H23       1.0  0.5219769991186592  0.4204329286342546  0.06337317151931525  1.0000
  H   H24       1.0  0.4602127064507974  0.3639025671330957  0.06738730282158219  1.0000
  H   H25       1.0  0.4013367219074705  0.3037021424721596  0.12707044309733562  1.0000
  H   H26       1.0  0.380556251936222  0.2734299962680299  0.19928948584556697  1.0000
  H   H27       1.0  0.4531929887342062  0.22353033182696383  0.19438383409927365  1.0000
  H   H28       1.0  0.4699264626917651  0.2511484846231271  0.11865496104829436  1.0000
  C   C45       1.0  0.5570558680016363  0.18805006188398016  0.4939206404237938  1.0000
  C   C46       1.0  0.5547908853440985  0.2101453796940448  0.4584985643810587  1.0000
  C   C47       1.0  0.519577433095301  0.20674991274771773  0.4456948133232332  1.0000
  C   C48       1.0  0.4855823285271033  0.17999548571187313  0.46817250962474904  1.0000
  C   C49       1.0  0.48912677692922635  0.1588568707639642  0.5049093003354908  1.0000
  C   C50       1.0  0.5238554048334829  0.16381137492473688  0.5191356903997413  1.0000
  H   H29       1.0  0.5813536244770888  0.23105541504716812  0.43957910081285423  1.0000
  H   H30       1.0  0.52041017235291  0.2253445339808153  0.4169640462624421  1.0000
  H   H31       1.0  0.46374574950568914  0.137365899487438  0.5238712795521631  1.0000
  H   H32       1.0  0.524885872034129  0.14680781539778265  0.5490601660521304  1.0000
  C   C51       1.0  0.4186564536508789  0.10327696749300101  0.45135920587295314  1.0000
  C   C52       1.0  0.4104384005626048  0.1319994263235856  0.45717076797506195  1.0000
  C   C53       1.0  0.37210287094208894  0.12154873815447007  0.4645292455945019  1.0000
  C   C54       1.0  0.34413880172237604  0.08468453889010294  0.47317627440596816  1.0000
  C   C55       1.0  0.3532664984734492  0.05684219861442252  0.47269552053483144  1.0000
  C   C56       1.0  0.38984143413266537  0.06561168457020065  0.4608369250467918  1.0000
  C   C57       1.0  0.4446127933498234  0.17577691236366944  0.45488146382679173  1.0000
  C   C58       1.0  0.44013015806079275  0.19117483762018497  0.40741437752965787  1.0000
  C   C59       1.0  0.4170761837961524  0.20825593468983591  0.4000984155586858  1.0000
  C   C60       1.0  0.4165322334600895  0.2268470507508328  0.36025144164079415  1.0000
  C   C61       1.0  0.43754903416515323  0.2284009564045071  0.3253640816384051  1.0000
  C   C62       1.0  0.45673221792268254  0.20844576364601544  0.33152394501450066  1.0000
  C   C63       1.0  0.45762970515182066  0.18887097589686402  0.37147884327081077  1.0000
  C   C64       1.0  0.41854167560008904  0.18421939457675293  0.5263437280322949  1.0000
  C   C65       1.0  0.4140932931285652  0.20636008769665853  0.5527361344273528  1.0000
  C   C66       1.0  0.43729548608556656  0.2452356323441495  0.5471829366505488  1.0000
  C   C67       1.0  0.46216075108857346  0.26145557216156584  0.5112768363021795  1.0000
  C   C68       1.0  0.46481259917528905  0.23930089979393196  0.4841158778002022  1.0000
  C   C69       1.0  0.4422703744907653  0.20030639505057848  0.4899307103368086  1.0000
  C   C70       1.0  0.43402197798805164  0.27100865959510234  0.5781604922111422  1.0000
  C   C71       1.0  0.3545753161470143  0.2944563155035986  0.4952876820437608  1.0000
  C   C72       1.0  0.34051667384818846  0.26336660584255817  0.5260984454449803  1.0000
  C   C73       1.0  0.36444931678994297  0.25626799167792025  0.5544760055800382  1.0000
  C   C74       1.0  0.40427429627001765  0.2805575031256195  0.5511499736960512  1.0000
  C   C75       1.0  0.41818874726512345  0.3115559549156886  0.517977956587616  1.0000
  C   C76       1.0  0.3934512654223002  0.318216838393533  0.49073523722320067  1.0000
  C   C77       1.0  0.47363353716679507  0.30749489871329166  0.5880797200421471  1.0000
  C   C78       1.0  0.5082176377629213  0.30714751888600955  0.5901302824720978  1.0000
  C   C79       1.0  0.5424912948094442  0.3380704640136865  0.5971486349037948  1.0000
  C   C80       1.0  0.5440014941877543  0.3709924081206336  0.6034245987045527  1.0000
  C   C81       1.0  0.5099495642860987  0.3724730129935016  0.6022014562024768  1.0000
  C   C82       1.0  0.47554265418162284  0.3409880739040665  0.5948168151070566  1.0000
  C   C83       1.0  0.3974503158610904  0.2579281560280092  0.6510421249885728  1.0000
  C   C84       1.0  0.38496051354441024  0.23946788147652995  0.6926060770176672  1.0000
  C   C85       1.0  0.40053461910082505  0.21786331374061496  0.7114699431994136  1.0000
  C   C86       1.0  0.4253009871863311  0.2120087059462906  0.6881779087080131  1.0000
  C   C87       1.0  0.4363703839227439  0.22939269483825236  0.6463163471396436  1.0000
  C   C88       1.0  0.4220631704662889  0.25198485952456184  0.6267427966719334  1.0000
  H   H33       1.0  0.4478279718507807  0.10862530012390241  0.44655166716158573  1.0000
  H   H34       1.0  0.3632981701668778  0.14222524272157744  0.4680678557208281  1.0000
  H   H35       1.0  0.31641769788772794  0.07817194170507344  0.48389021781987274  1.0000
  H   H36       1.0  0.3968759644755906  0.044059014402849206  0.45877001044435356  1.0000
  H   H37       1.0  0.3990377136633731  0.20470594679080517  0.42737710970257403  1.0000
  H   H38       1.0  0.3969754574605896  0.23836117416035654  0.35462302387054695  1.0000
  H   H39       1.0  0.47242637534639675  0.20847851928795308  0.30389923890077386  1.0000
  H   H40       1.0  0.47298231281404074  0.17346694058785886  0.37416714042777943  1.0000
  H   H41       1.0  0.40300714601838605  0.15422212912632904  0.5342778021232999  1.0000
  H   H42       1.0  0.39349221335251905  0.19182191016803563  0.5796158355625425  1.0000
  H   H43       1.0  0.4800436078936829  0.29166494308020624  0.5046116907962156  1.0000
  H   H44       1.0  0.48584057515316004  0.25267794244669417  0.45695491929822507  1.0000
  H   H45       1.0  0.3103117468490816  0.24107948489222683  0.5287278747809934  1.0000
  H   H46       1.0  0.35278375693009156  0.23039144219072968  0.5774344557526907  1.0000
  H   H47       1.0  0.4487730515825487  0.3286402185365986  0.5107633780860674  1.0000
  H   H48       1.0  0.4048372184159291  0.3406020828345785  0.46344673177581985  1.0000
  H   H49       1.0  0.509010766200721  0.2811625638100661  0.5893061329787206  1.0000
  H   H50       1.0  0.5678088496012597  0.3349779537598722  0.5997388190258376  1.0000
  H   H51       1.0  0.50927682129626  0.39768677822828713  0.6033559195801045  1.0000
  H   H52       1.0  0.45025927344530087  0.3434073707720926  0.5946532933821802  1.0000
  H   H53       1.0  0.38640297071276647  0.2761889795221339  0.636789571448342  1.0000
  H   H54       1.0  0.36389325209631546  0.24311438206420583  0.7099655433305503  1.0000
  H   H55       1.0  0.4363651779796724  0.19464613876185874  0.7031499578377002  1.0000
  H   H56       1.0  0.45645205366968883  0.22632185745385805  0.6280771339469251  1.0000
  C   C89       1.0  0.3654609139347948  0.8162704812202999  0.010601015310704877  1.0000
  C   C90       1.0  0.34005782171000926  0.7939489633362349  0.04447889029674177  1.0000
  C   C91       1.0  0.30689042949347534  0.7951429149922657  0.0492704038790713  1.0000
  C   C92       1.0  0.30083360572526535  0.8222297826841867  0.023303873464281602  1.0000
  C   C93       1.0  0.3262126612397327  0.8432570981467786  0.9877627904196469  1.0000
  C   C94       1.0  0.3578340803531499  0.8395476474823701  0.9807673310294326  1.0000
  H   H57       1.0  0.3469450874605229  0.7754795593119466  0.06600260085532846  1.0000
  H   H58       1.0  0.28625804283306794  0.7748994795063222  0.0741656053611605  1.0000
  H   H59       1.0  0.3225886392079871  0.8650451928812612  0.9669301226703879  1.0000
  H   H60       1.0  0.379437155093445  0.8604144462231746  0.9555293880120023  1.0000
  C   C95       1.0  0.31007597338689313  0.8982608702574707  0.03810481346105802  1.0000
  C   C96       1.0  0.27423817011104484  0.8701772753533965  0.026301128568231875  1.0000
  C   C97       1.0  0.24659070277202677  0.8806453121048052  0.013789165676275911  1.0000
  C   C98       1.0  0.25362698619738977  0.9167678881013344  0.014072450712451862  1.0000
  C   C99       1.0  0.28869696886815877  0.9436005133937707  0.027008131097907666  1.0000
  C   C100      1.0  0.3164423021432044  0.934370745040448  0.04026297318597731  1.0000
  C   C101      1.0  0.2649139200672173  0.8274996256914793  0.03197493996930475  1.0000
  C   C102      1.0  0.24714147840540182  0.8152581188019112  0.08106000832540108  1.0000
  C   C103      1.0  0.20927871392095176  0.8043871162353704  0.08893390642165157  1.0000
  C   C104      1.0  0.19351358349396014  0.7964264993515628  0.1297119730409897  1.0000
  C   C105      1.0  0.21544081339765792  0.7977298901833376  0.16554546974351392  1.0000
  C   C106      1.0  0.25443263084581663  0.8111730245180944  0.15956646139513164  1.0000
  C   C107      1.0  0.27033516288892095  0.8210564232002779  0.11776736512566502  1.0000
  C   C108      1.0  0.2310102195697679  0.8144615164550618  0.9554770610600418  1.0000
  C   C109      1.0  0.20510450169170935  0.789543533175756  0.9284338381999757  1.0000
  C   C110      1.0  0.18145912656990956  0.7516944939854027  0.9427975865131225  1.0000
  C   C111      1.0  0.18586961765889218  0.7385114425716571  0.98472782720594  1.0000
  C   C112      1.0  0.21251663842807458  0.7629542288057201  0.011739420854949698  1.0000
  C   C113      1.0  0.23454716499392284  0.8017568607589947  0.9983524573226452  1.0000
  C   C114      1.0  0.14866287958193045  0.724965358534398  0.9117088361796132  1.0000
  C   C115      1.0  0.061121399126681866  0.7439460803476604  0.965687357561327  1.0000
  C   C116      1.0  0.08428346203285171  0.7676114065864692  0.9307035197412609  1.0000
  C   C117      1.0  0.1109583658427276  0.7612734293748883  0.9128109726052804  1.0000
  C   C118      1.0  0.11516971007903552  0.7309793043035511  0.9300886780557254  1.0000
  C   C119      1.0  0.091473428877104  0.7070220513906416  0.9662891175088723  1.0000
  C   C120      1.0  0.06445250892939998  0.7132124556597391  0.9824581456646551  1.0000
  C   C121      1.0  0.13968833363818134  0.6818101823801516  0.9176283226201404  1.0000
  C   C122      1.0  0.16827808820836299  0.6728112542792082  0.929480377239185  1.0000
  C   C123      1.0  0.16006986474103185  0.6363906056093623  0.9372280365638308  1.0000
  C   C124      1.0  0.12307361576281829  0.607500074544668  0.9330157169310137  1.0000
  C   C125      1.0  0.09412966969472338  0.6152863204819242  0.919678885050091  1.0000
  C   C126      1.0  0.10266483259235419  0.6519818571904414  0.9108944979897284  1.0000
  C   C127      1.0  0.1298533556658202  0.7313529879356634  0.8301180363352632  1.0000
  C   C128      1.0  0.13934268905107494  0.7403274201201093  0.786199371467948  1.0000
  C   C129      1.0  0.17581629848331062  0.7516183089447317  0.7712567562487387  1.0000
  C   C130      1.0  0.20357950959725  0.7537364662124423  0.8010602258247193  1.0000
  C   C131      1.0  0.19481157213799602  0.7448699382925671  0.8452765002313094  1.0000
  C   C132      1.0  0.15807697148376162  0.7344474404221304  0.8611250258063343  1.0000
  H   H61       1.0  0.33236006952753183  0.8917788214329585  0.04842466951801034  1.0000
  H   H62       1.0  0.21842602941592065  0.859315022891681  0.003670183815627226  1.0000
  H   H63       1.0  0.23047326881596214  0.9230360543073315  0.003421630793815078  1.0000
  H   H64       1.0  0.3434417283122523  0.9563652846417129  0.05239890151940741  1.0000
  H   H65       1.0  0.18979089940804175  0.8026629729481654  0.06183475913167768  1.0000
  H   H66       1.0  0.1629422221921506  0.7854220137957003  0.1318580321582681  1.0000
  H   H67       1.0  0.2731042071864508  0.8139416514509865  0.18725134350361294  1.0000
  H   H68       1.0  0.3011597420208619  0.8333655441642327  0.11402860440809004  1.0000
  H   H69       1.0  0.24843748507425387  0.843945291169878  0.9436282768754949  1.0000
  H   H70       1.0  0.20311463308379693  0.8007266111501636  0.8955692419343083  1.0000
  H   H71       1.0  0.16964756263957292  0.7100485343942101  0.9994676754863027  1.0000
  H   H72       1.0  0.21333538163693896  0.7499294470217023  0.044099846938478175  1.0000
  H   H73       1.0  0.08253662616781211  0.7916349404035665  0.9202741041286412  1.0000
  H   H74       1.0  0.1299185098850984  0.7817952177190745  0.8868731566053789  1.0000
  H   H75       1.0  0.09346806444047037  0.6831099937287297  0.9820591526559566  1.0000
  H   H76       1.0  0.04570178061536941  0.6936538469400181  0.009742657072483453  1.0000
  H   H77       1.0  0.19895307692584563  0.6942074037810155  0.9320411274507501  1.0000
  H   H78       1.0  0.18361350866374257  0.6317925820405372  0.9479746843227107  1.0000
  H   H79       1.0  0.0631758358705718  0.5937791698011936  0.9198325954714748  1.0000
  H   H80       1.0  0.07989946780942926  0.6582724191390577  0.9017994196521008  1.0000
  H   H81       1.0  0.10067021805176311  0.7212792236115322  0.8414043057862353  1.0000
  H   H82       1.0  0.11715440547673302  0.737561302060643  0.7626489726512428  1.0000
  H   H83       1.0  0.23240289689121038  0.7619314256099128  0.7899374780986236  1.0000
  H   H84       1.0  0.2168087851249498  0.7449749598150485  0.865340615873649  1.0000
  C   C133      1.0  0.34391768450242255  0.7961110804556022  0.4986595000107131  1.0000
  C   C134      1.0  0.3187686127041796  0.7781704884330058  0.5345459777520972  1.0000
  C   C135      1.0  0.2914501745722188  0.787573120111487  0.5429084787622785  1.0000
  C   C136      1.0  0.2889892395280863  0.8156398958415207  0.5149756977188845  1.0000
  C   C137      1.0  0.31159795138350804  0.8294213951390862  0.4766265828008612  1.0000
  C   C138      1.0  0.3394906564116939  0.8211868521814877  0.46908169041506204  1.0000
  H   H85       1.0  0.32227234186941356  0.7581289302641183  0.5567195236453429  1.0000
  H   H86       1.0  0.2731737735378612  0.7726471219232243  0.5710701902204997  1.0000
  H   H87       1.0  0.3073324066858351  0.8486771559483232  0.45269681358244246  1.0000
  H   H88       1.0  0.3567497132899526  0.8352344303580093  0.43982438340016883  1.0000
  C   C139      1.0  0.3085016165863003  0.8986797295563166  0.5095075312390163  1.0000
  C   C140      1.0  0.2698000071539012  0.870599975965752  0.5067996114750624  1.0000
  C   C141      1.0  0.24435253135858226  0.8821993797820711  0.49125523630830775  1.0000
  C   C142      1.0  0.2572720203095134  0.9196583620496444  0.4764467089034971  1.0000
  C   C143      1.0  0.2962432568684174  0.9464992608881553  0.4763257028270885  1.0000
  C   C144      1.0  0.3220594456582479  0.935672673111571  0.49310630223390906  1.0000
  C   C145      1.0  0.2568127024497015  0.8268118019835148  0.521310529340598  1.0000
  C   C146      1.0  0.2436793431471982  0.8229387006754108  0.5716523275610597  1.0000
  C   C147      1.0  0.20497957890098867  0.809017829260206  0.5829287857085392  1.0000
  C   C148      1.0  0.19279027700215234  0.8020818852051715  0.6258238045781278  1.0000
  C   C149      1.0  0.21990979676837294  0.810951088292034  0.6579689052543389  1.0000
  C   C150      1.0  0.25867516913508987  0.8271368369895348  0.6476474139801379  1.0000
  C   C151      1.0  0.2701900256380018  0.8329394611264228  0.6049715142218838  1.0000
  C   C152      1.0  0.22188719431726406  0.8071457948593606  0.44727116275104206  1.0000
  C   C153      1.0  0.1952315739042709  0.7804584671336968  0.4221542258100205  1.0000
  C   C154      1.0  0.1702183630244529  0.7439921841884032  0.4406190989830684  1.0000
  C   C155      1.0  0.17302955337153245  0.7344031337788323  0.48436770125651196  1.0000
  C   C156      1.0  0.19852873532549398  0.7606836458776658  0.5096252668809274  1.0000
  C   C157      1.0  0.22411102864573174  0.7980507855217928  0.49279234052214627  1.0000
  C   C158      1.0  0.13811239081585094  0.7150510092772738  0.41184581627380945  1.0000
  C   C159      1.0  0.04540181691655887  0.7330610275101204  0.45640875673713777  1.0000
  C   C160      1.0  0.06507082115721338  0.7508953793393126  0.4167154932406299  1.0000
  C   C161      1.0  0.09433007367071086  0.7457979696543509  0.40255451186632996  1.0000
  C   C162      1.0  0.10277384635368421  0.7202191058692442  0.42500931512636314  1.0000
  C   C163      1.0  0.08148575254729379  0.700803265542583  0.4647483647058363  1.0000
  C   C164      1.0  0.05325637427098476  0.7066978277085344  0.47961903036610004  1.0000
  C   C165      1.0  0.1317083890781503  0.6730755134929909  0.42327271440817527  1.0000
  C   C166      1.0  0.16182780455035647  0.6669528625333483  0.4348762160054077  1.0000
  C   C167      1.0  0.1561473837422586  0.6312934031470901  0.4441184638954243  1.0000
  C   C168      1.0  0.12007931886981475  0.6002757798990719  0.44267620228201404  1.0000
  C   C169      1.0  0.08903914938348156  0.6053897462539487  0.4322794910143698  1.0000
  C   C170      1.0  0.09497688418011621  0.6416316214589203  0.4236520848098887  1.0000
  C   C171      1.0  0.12164624341205352  0.712137880370551  0.33068671378313325  1.0000
  C   C172      1.0  0.13139733787526617  0.7168099952266488  0.2884340082488594  1.0000
  C   C173      1.0  0.16872944096711426  0.7306460080076405  0.27427924070010473  1.0000
  C   C174      1.0  0.19668853546147233  0.7372820597590396  0.3053604690342697  1.0000
  C   C175      1.0  0.18677240004572998  0.7322324928368229  0.3484059278907446  1.0000
  C   C176      1.0  0.14966364998299472  0.7212997182565352  0.36224640668428676  1.0000
  H   H89       1.0  0.32857676862140917  0.8919220255317197  0.5246202090520972  1.0000
  H   H90       1.0  0.2136056121596632  0.8604007859313607  0.4903002694350293  1.0000
  H   H91       1.0  0.23655836324752785  0.9281186481839534  0.4658276080900209  1.0000
  H   H92       1.0  0.35243414595576544  0.9563310406353934  0.4932207674413226  1.0000
  H   H93       1.0  0.18234695497900516  0.8022786537945974  0.5591069408285391  1.0000
  H   H94       1.0  0.1619539621775749  0.788576055513528  0.6337480673656402  1.0000
  H   H95       1.0  0.2787857724129156  0.8331517052872589  0.6734151673861678  1.0000
  H   H96       1.0  0.30009667298078585  0.8414406756298528  0.5976032252989513  1.0000
  H   H97       1.0  0.2418797143164352  0.8358706180521347  0.4305919468136449  1.0000
  H   H98       1.0  0.19442082664348254  0.7906924603135466  0.38817114094619803  1.0000
  H   H99       1.0  0.15487313848462989  0.7066009851884748  0.5017925762593457  1.0000
  H   H100      1.0  0.1980028171817572  0.7497572901291553  0.5436835717381928  1.0000
  H   H101      1.0  0.05945147774944087  0.771292092038348  0.39678219497819156  1.0000
  H   H102      1.0  0.1114615881821698  0.7626611247951148  0.37285896662876794  1.0000
  H   H103      1.0  0.08815684455761538  0.6811880212528769  0.48634958456201444  1.0000
  H   H104      1.0  0.037801620417678566  0.6910644965360195  0.509190299092756  1.0000
  H   H105      1.0  0.19131171421858437  0.6900324938966808  0.43399319869107494  1.0000
  H   H106      1.0  0.18149589115297513  0.6288046530975154  0.45495995425473246  1.0000
  H   H107      1.0  0.06098143499285241  0.5800504929287692  0.43284854661693983  1.0000
  H   H108      1.0  0.07101664495021642  0.6455067513443787  0.4162412802384882  1.0000
  H   H109      1.0  0.09119063546861446  0.7004527024661663  0.3406321050901185  1.0000
  H   H110      1.0  0.10846368549315713  0.7080450124094669  0.26503633872318866  1.0000
  H   H111      1.0  0.22625730523717522  0.7461692717729606  0.29424001061232236  1.0000
  H   H112      1.0  0.20927131601009988  0.7402445911840264  0.37178953454807595  1.0000
  C   C177      1.0  0.9643381574386555  0.7051988974275687  0.9731406777811953  1.0000
  C   C178      1.0  0.9361803202420368  0.6978008585187635  0.9424084048079165  1.0000
  C   C179      1.0  0.9048840139955174  0.6620087866195502  0.9423953230699265  1.0000
  C   C180      1.0  0.9002365952248662  0.6322480239181412  0.9722347674253798  1.0000
  C   C181      1.0  0.9282533056629196  0.6399307024811355  0.004059688454817501  1.0000
  C   C182      1.0  0.9590485865731282  0.6762465127414281  0.006086376712936136  1.0000
  H   H113      1.0  0.9378767299457382  0.7203421634164814  0.9182202712641931  1.0000
  H   H114      1.0  0.8819152972098062  0.6581274591442322  0.9193845459453134  1.0000
  H   H115      1.0  0.9234774745744575  0.6173546136723741  0.029073050735302416  1.0000
  H   H116      1.0  0.9791137485137187  0.6806983938009715  0.03300751425320953  1.0000
  C   C183      1.0  0.9051882209933729  0.5599603087711983  0.9765680931346055  1.0000
  C   C184      1.0  0.8700939665327574  0.5567774216921242  0.9860981392604047  1.0000
  C   C185      1.0  0.8406896589364734  0.521852464364079  0.006206172728580618  1.0000
  C   C186      1.0  0.8473059263773686  0.4922483229394523  0.01927299753738733  1.0000
  C   C187      1.0  0.8820946975651607  0.4958195338763415  0.009055735010622491  1.0000
  C   C188      1.0  0.9107426890487402  0.5293673682861952  0.9865298366140784  1.0000
  C   C189      1.0  0.8627874064817624  0.591106541913679  0.9721268430869613  1.0000
  C   C190      1.0  0.8462546445024375  0.5800891124377878  0.9254217680277518  1.0000
  C   C191      1.0  0.8066748247460198  0.5566220560758292  0.9209903292836001  1.0000
  C   C192      1.0  0.7908904366664464  0.5491798972422769  0.8810681353722652  1.0000
  C   C193      1.0  0.8135154754692833  0.5632682806466603  0.8440958733777014  1.0000
  C   C194      1.0  0.8531113369883107  0.5842122714709524  0.8474120939581958  1.0000
  C   C195      1.0  0.869425564677812  0.5919675403502828  0.8878640982581302  1.0000
  C   C196      1.0  0.8349396790421458  0.5838702759723925  0.05018318214733161  1.0000
  C   C197      1.0  0.8101707277414611  0.5844507855203932  0.07879359721861358  1.0000
  C   C198      1.0  0.7852053122641728  0.5977795045662988  0.0648736468667815  1.0000
  C   C199      1.0  0.7858828125452471  0.6094857907593456  0.020688670518332647  1.0000
  C   C200      1.0  0.8110162507625827  0.6093280108431888  0.9918966196245234  1.0000
  C   C201      1.0  0.8350957910265245  0.5949504401489228  0.0055753059140073  1.0000
  C   C202      1.0  0.7539146399563877  0.5953965436380803  0.09699650858840948  1.0000
  C   C203      1.0  0.6506449202863309  0.48457490586579033  0.0870851298001985  1.0000
  C   C204      1.0  0.6816186476903999  0.4870851865866276  0.11190772763644258  1.0000
  C   C205      1.0  0.7145619548766892  0.5219046704069095  0.1128515750324294  1.0000
  C   C206      1.0  0.7178210923081815  0.5538254177466143  0.08958472288665982  1.0000
  C   C207      1.0  0.6890058856043676  0.5496767094037036  0.06093702486210601  1.0000
  C   C208      1.0  0.6551339956353993  0.5163575354843678  0.06045332759992149  1.0000
  C   C209      1.0  0.7449208607794795  0.6300337404403404  0.08599803737321993  1.0000
  C   C210      1.0  0.7723636054146449  0.6663231809404316  0.06747756681371397  1.0000
  C   C211      1.0  0.763041023589736  0.6943434109888965  0.05567718505973034  1.0000
  C   C212      1.0  0.7273599788925382  0.6878235185714876  0.0669520079899611  1.0000
  C   C213      1.0  0.7006695939508351  0.6525429346062862  0.08798776972151648  1.0000
  C   C214      1.0  0.7100465503336442  0.6248545524474385  0.09833738673239631  1.0000
  C   C215      1.0  0.736156716458609  0.5807636510116014  0.1794284641855239  1.0000
  C   C216      1.0  0.7467584878387593  0.5809905908055255  0.22259165868390984  1.0000
  C   C217      1.0  0.784432209260312  0.6024201219432939  0.23357246955281274  1.0000
  C   C218      1.0  0.8124176836991197  0.6236206201775842  0.20138354505433467  1.0000
  C   C219      1.0  0.8026186079398328  0.6227160078919267  0.15823899203258468  1.0000
  C   C220      1.0  0.7640212065230485  0.5994302772417293  0.14683433285280204  1.0000
  H   H117      1.0  0.9289572877639847  0.5847089795642559  0.9592118972562198  1.0000
  H   H118      1.0  0.8134002563321691  0.518988766899602  0.015012242769661756  1.0000
  H   H119      1.0  0.8241259596256383  0.4659088458891995  0.035305648574623066  1.0000
  H   H120      1.0  0.9392800668827546  0.5329016831354604  0.9813396570665002  1.0000
  H   H121      1.0  0.7863342147810304  0.5457477270866232  0.9491193363968459  1.0000
  H   H122      1.0  0.7603192215128017  0.533395285575105  0.8768394635669604  1.0000
  H   H123      1.0  0.8716362920563253  0.5960913004977793  0.8187500060218529  1.0000
  H   H124      1.0  0.9005200965402105  0.6090722192210674  0.8878608278236327  1.0000
  H   H125      1.0  0.8524941440419698  0.5719587692337227  0.06202607954978312  1.0000
  H   H126      1.0  0.8076893527861332  0.5725752978175969  0.11224392830278854  1.0000
  H   H127      1.0  0.766692980008077  0.6190513300873057  0.0071462264205503145  1.0000
  H   H128      1.0  0.8116932361539176  0.6208964779379267  0.9583713955903549  1.0000
  H   H129      1.0  0.6797653472431762  0.46283305770389105  0.13221254725780024  1.0000
  H   H130      1.0  0.7377187529609361  0.5255954337661897  0.13447732314733898  1.0000
  H   H131      1.0  0.6908721038762343  0.574626202939021  0.041225789102049805  1.0000
  H   H132      1.0  0.6320670956708936  0.5150727141212875  0.040391828305179955  1.0000
  H   H133      1.0  0.8007346509776527  0.6729664314264802  0.05783959634949642  1.0000
  H   H134      1.0  0.7819112297775678  0.7210407838925567  0.03696310477797069  1.0000
  H   H135      1.0  0.6728427018076254  0.6483311609699124  0.09832103455990866  1.0000
  H   H136      1.0  0.6879651466754917  0.5979051498642265  0.11415745952729267  1.0000
  H   H137      1.0  0.7055917979175694  0.5627867809492034  0.17236269045361283  1.0000
  H   H138      1.0  0.7247017190766339  0.5659888340507739  0.249297372703831  1.0000
  H   H139      1.0  0.8429968306757315  0.6393636088011269  0.20943241139620294  1.0000
  H   H140      1.0  0.8256274394970846  0.6386175728548681  0.13325123725421542  1.0000
  C   C221      1.0  0.951383763034551  0.6799844064382645  0.49944767472461754  1.0000
  C   C222      1.0  0.9246833151145782  0.6787137449810139  0.4688265965242548  1.0000
  C   C223      1.0  0.8931548512678202  0.6445177867669387  0.4633813230858692  1.0000
  C   C224      1.0  0.8881285643331072  0.610796100964625  0.4859276985118332  1.0000
  C   C225      1.0  0.9143159377918451  0.6131478669116288  0.5176443722688681  1.0000
  C   C226      1.0  0.9469160100620209  0.6477226273307536  0.5232793309081103  1.0000
  H   H141      1.0  0.9264293093890222  0.7035286171719253  0.45094713112626456  1.0000
  H   H142      1.0  0.8716190106348826  0.6440088789110505  0.4415184684698888  1.0000
  H   H143      1.0  0.9095072369622846  0.5875003467980486  0.5373291175094943  1.0000
  H   H144      1.0  0.9672036056842643  0.6492527314348223  0.5461429384803347  1.0000
  C   C227      1.0  0.885981762345039  0.5357607583642118  0.47613274719173426  1.0000
  C   C228      1.0  0.8519520608386858  0.5344660845650671  0.4876839218370062  1.0000
  C   C229      1.0  0.8206219757906953  0.4988359074331152  0.5013281745606967  1.0000
  C   C230      1.0  0.8247277409812516  0.4675868162427235  0.5090987269268252  1.0000
  C   C231      1.0  0.859328455988499  0.4703690104647953  0.50029144682498  1.0000
  C   C232      1.0  0.8898502763942545  0.5041620119436891  0.48436770125651196  1.0000
  C   C233      1.0  0.8499453744437429  0.5719359539669697  0.48009651380273927  1.0000
  C   C234      1.0  0.8360746772860159  0.5688736601011047  0.4306900598485708  1.0000
  C   C235      1.0  0.7971718164595637  0.5487219929415034  0.42108806416382605  1.0000
  C   C236      1.0  0.7856740428236385  0.54816761359391  0.3791316599950283  1.0000
  C   C237      1.0  0.8123278667675565  0.5656412247856617  0.34515511600020093  1.0000
  C   C238      1.0  0.8505565134946247  0.5833516087079778  0.3535895665693279  1.0000
  C   C239      1.0  0.8626801650701983  0.5844840776894873  0.39594496374682414  1.0000
  C   C240      1.0  0.8158920975075644  0.5577319559665442  0.5561177636977976  1.0000
  C   C241      1.0  0.7902044662808718  0.5586819204994941  0.583242747420302  1.0000
  C   C242      1.0  0.7692469344275172  0.5765585050195708  0.5698699407599065  1.0000
  C   C243      1.0  0.7747770814998574  0.5925321164865225  0.5261213384864629  1.0000
  C   C244      1.0  0.8010378494572454  0.5924641311043409  0.4990650338884067  1.0000
  C   C245      1.0  0.8202434244220383  0.5730708827966882  0.5122023692649801  1.0000
  C   C246      1.0  0.7374158013079686  0.5738173842007838  0.6018711423182265  1.0000
  C   C247      1.0  0.6475603875098869  0.4568119083785125  0.5858819880598078  1.0000
  C   C248      1.0  0.672873582138367  0.463605800985755  0.619511865997897  1.0000
  C   C249      1.0  0.7012113892060826  0.4999981541503757  0.6251043089886714  1.0000
  C   C250      1.0  0.7046969140505952  0.5310284039668984  0.5968215914540418  1.0000
  C   C251      1.0  0.6790389635951698  0.5231891775566592  0.5635318387036956  1.0000
  C   C252      1.0  0.6502422583101942  0.48711468605073127  0.5590382617040909  1.0000
  C   C253      1.0  0.7220759046507821  0.6033319486822395  0.5914777014850797  1.0000
  C   C254      1.0  0.7448425915969207  0.6402564430920309  0.5727381118142393  1.0000
  C   C255      1.0  0.7306408610836304  0.6648185386755673  0.5647746038127566  1.0000
  C   C256      1.0  0.6924118207248484  0.6521193508631231  0.5751843968183908  1.0000
  C   C257      1.0  0.6710962278351984  0.6173828576862163  0.5983554252333829  1.0000
  C   C258      1.0  0.6848489678621847  0.5929757166614535  0.6071594349007307  1.0000
  C   C259      1.0  0.7256605840906323  0.564497062183097  0.6856498628414233  1.0000
  C   C260      1.0  0.7380525365885763  0.5668284704936556  0.7274721791958223  1.0000
  C   C261      1.0  0.776379166721812  0.5896351382309083  0.7354127941558224  1.0000
  C   C262      1.0  0.8014619417748446  0.6110445111918235  0.700693861530056  1.0000
  C   C263      1.0  0.7894068816115436  0.6060449303938304  0.6588159477891989  1.0000
  C   C264      1.0  0.7513505184062755  0.5818801880806954  0.6502997363576338  1.0000
  H   H145      1.0  0.9104446501148727  0.5627168531286126  0.46293000312521027  1.0000
  H   H146      1.0  0.7925024403303577  0.4954429083218639  0.5072018749182584  1.0000
  H   H147      1.0  0.800428306701094  0.44061248207243375  0.5212680136921302  1.0000
  H   H148      1.0  0.9172110013077891  0.5069899691135156  0.4755538802856717  1.0000
  H   H149      1.0  0.7747997358746146  0.5350316551841442  0.4462671393603007  1.0000
  H   H150      1.0  0.7549634547656063  0.5329389367257198  0.3717535597686032  1.0000
  H   H151      1.0  0.8720362177712289  0.5964596678467896  0.32812596357156815  1.0000
  H   H152      1.0  0.8940883676227218  0.5981148619566855  0.40091602418306804  1.0000
  H   H153      1.0  0.8320457612194556  0.5443857348085046  0.5666256697383579  1.0000
  H   H154      1.0  0.7861620694418191  0.5445423780164715  0.6160877210789844  1.0000
  H   H155      1.0  0.7559697574249576  0.6029098845587343  0.5125653874942058  1.0000
  H   H156      1.0  0.8059338845034376  0.606798427648422  0.4657818220070555  1.0000
  H   H157      1.0  0.6707211927315242  0.4406656274713048  0.6435135847752614  1.0000
  H   H158      1.0  0.7218571330786541  0.5044824233152405  0.650839358049726  1.0000
  H   H159      1.0  0.6794497490486805  0.5462047425771254  0.5412699910790166  1.0000
  H   H160      1.0  0.62881065333124  0.4826092426555068  0.5344642168896591  1.0000
  H   H161      1.0  0.773442151925964  0.6510497997676892  0.5605688250489343  1.0000
  H   H162      1.0  0.7475259228727068  0.6925905190483176  0.5471894775195438  1.0000
  H   H163      1.0  0.6420796758966546  0.6085289720832436  0.6087913817149975  1.0000
  H   H164      1.0  0.6670822247764356  0.565563132348438  0.6244469516546681  1.0000
  H   H165      1.0  0.6962614483261098  0.5440999568600601  0.6804138972108795  1.0000
  H   H166      1.0  0.717536165901203  0.5505739471636093  0.7537959064664321  1.0000
  H   H167      1.0  0.8318502371038715  0.6322077637496278  0.7051351115777001  1.0000
  H   H168      1.0  0.8100380097684957  0.6215025950018866  0.6315503353833009  1.0000
  C   C265      1.0  0.6628497135426381  0.7235842308613477  0.005606281038164296  1.0000
  C   C266      1.0  0.671841061420888  0.7567496523851555  0.9781019269139466  1.0000
  C   C267      1.0  0.6428147149871994  0.7634382920910511  0.962390759587818  1.0000
  C   C268      1.0  0.6046773256962666  0.7393284462160339  0.9753874662809976  1.0000
  C   C269      1.0  0.5969871397933175  0.7082713700516727  0.006641042403717031  1.0000
  C   C270      1.0  0.6250511515153987  0.6992077661728593  0.019895197700542194  1.0000
  H   H169      1.0  0.7005139432295675  0.7764439474922263  0.965909747107159  1.0000
  H   H170      1.0  0.6513942463755414  0.7887181460310684  0.9382582234305524  1.0000
  H   H171      1.0  0.56828857898426  0.6885583929065253  0.020736778609791298  1.0000
  H   H172      1.0  0.6181912855659873  0.6738329208766578  0.03991499895544024  1.0000
  C   C271      1.0  0.522981878391238  0.6736489885940768  0.9460941844866316  1.0000
  C   C272      1.0  0.5268040622645322  0.7072024734095717  0.9577173086908491  1.0000
  C   C273      1.0  0.49223732972091405  0.706630211710451  0.964840315026467  1.0000
  C   C274      1.0  0.4564934231585498  0.6750052165742104  0.9585970555706844  1.0000
  C   C275      1.0  0.45391057713152577  0.6417195687366534  0.9482199669100254  1.0000
  C   C276      1.0  0.4876195408574014  0.6421198234139511  0.9410740675329249  1.0000
  C   C277      1.0  0.5697855341986311  0.7443799583677142  0.9558139158132873  1.0000
  C   C278      1.0  0.5733786573969791  0.7555191376592924  0.9035556429772738  1.0000
  C   C279      1.0  0.5572594427791894  0.7760600511413811  0.8844072489942423  1.0000
  C   C280      1.0  0.5610700201989718  0.78831171942789  0.8405605336858728  1.0000
  C   C281      1.0  0.5798352561683944  0.7782688130128671  0.8135402038672893  1.0000
  C   C282      1.0  0.5969068061903432  0.7579041959408412  0.8312953927543736  1.0000
  C   C283      1.0  0.5921056464877548  0.745303809856425  0.8756490254098599  1.0000
  C   C284      1.0  0.5592240991000387  0.7664785957912297  0.026583792221853298  1.0000
  C   C285      1.0  0.5636836072464898  0.7942004523960517  0.050667860539865384  1.0000
  C   C286      1.0  0.5837149874876965  0.8327230653954089  0.033899688784135414  1.0000
  C   C287      1.0  0.5982304903989198  0.8416223342608924  0.9914027840153965  1.0000
  C   C288      1.0  0.5933883404174235  0.8135696709500783  0.9676888634738147  1.0000
  C   C289      1.0  0.5719495383218094  0.7755659128839475  0.9836583951252481  1.0000
  C   C290      1.0  0.5869691466950862  0.8655788586733897  0.06000527807376004  1.0000
  C   C291      1.0  0.4736836817908664  0.8529283058356244  0.03615563450053082  1.0000
  C   C292      1.0  0.47721238320880366  0.8289829048226899  0.06837203064878812  1.0000
  C   C293      1.0  0.5128165192467441  0.8334003068475747  0.07706386441287058  1.0000
  C   C294      1.0  0.5451993335899165  0.8598850072610658  0.05127354500880773  1.0000
  C   C295      1.0  0.5396696134812736  0.8804409420423612  0.015793778501536227  1.0000
  C   C296      1.0  0.5051574095605993  0.8784235045077803  0.008541818933680804  1.0000
  C   C297      1.0  0.6221667067342187  0.9079074346838301  0.04994476747246176  1.0000
  C   C298      1.0  0.6578310178329667  0.9168910598626698  0.034788265837114  1.0000
  C   C299      1.0  0.6873395504183243  0.9541772007010281  0.026314995210501402  1.0000
  C   C300      1.0  0.6826024088084259  0.9828515038358069  0.038122800850794426  1.0000
  C   C301      1.0  0.6469508018937523  0.9745803192525113  0.05266511488750626  1.0000
  C   C302      1.0  0.6165481754961052  0.9376830968928376  0.05866047540837617  1.0000
  C   C303      1.0  0.5798496333407666  0.8648990504378725  0.14354460279173778  1.0000
  C   C304      1.0  0.5844145758399906  0.85511163163338  0.1863104394986739  1.0000
  C   C305      1.0  0.6069069530432568  0.8386554658798177  0.19619990637575144  1.0000
  C   C306      1.0  0.6250364835639832  0.8334264052747379  0.16338927227929312  1.0000
  C   C307      1.0  0.6197307872435215  0.8424636158119666  0.12035558698700936  1.0000
  C   C308      1.0  0.5961662986114672  0.8575906112370272  0.11008773083856777  1.0000
  H   H173      1.0  0.5474087204195436  0.6725498023333012  0.9366949557407337  1.0000
  H   H174      1.0  0.49371254016145144  0.7322521709495186  0.9721922517769119  1.0000
  H   H175      1.0  0.42935663501703647  0.6749010205556744  0.9603827128063352  1.0000
  H   H176      1.0  0.48727231455296394  0.617791728369366  0.929549056363633  1.0000
  H   H177      1.0  0.5401783602443581  0.7817732530114333  0.9045171507195472  1.0000
  H   H178      1.0  0.5474016428054056  0.8041665100708081  0.8272694878879155  1.0000
  H   H179      1.0  0.6110888013100453  0.7482503858161504  0.8124053630966469  1.0000
  H   H180      1.0  0.6043378715641379  0.728516069653188  0.8893586868235009  1.0000
  H   H181      1.0  0.546316009314517  0.7375527612162711  0.041335021614267276  1.0000
  H   H182      1.0  0.5520378476092996  0.7850913332488395  0.08279955243463669  1.0000
  H   H183      1.0  0.6147061317251997  0.8712702325944855  0.9769703565778016  1.0000
  H   H184      1.0  0.608143584121744  0.8224271189201761  0.9361030070966809  1.0000
  H   H185      1.0  0.45367933143565337  0.8115149094600694  0.09135631725397121  1.0000
  H   H186      1.0  0.5151912977770668  0.815569576482254  0.10453322488796474  1.0000
  H   H187      1.0  0.5625879024166847  0.9007362258239571  0.9929039134497621  1.0000
  H   H188      1.0  0.5033327621283092  0.8962505750535424  0.9809537457957916  1.0000
  H   H189      1.0  0.6629704453583192  0.8942354338175337  0.02904983065036996  1.0000
  H   H190      1.0  0.7146640556994389  0.960423124869951  0.011273743686846563  1.0000
  H   H191      1.0  0.6419984694096784  0.9977098335559511  0.05650754837865292  1.0000
  H   H192      1.0  0.5884235217102627  0.9334589434279874  0.06902938798279143  1.0000
  H   H193      1.0  0.5629166552572621  0.8783389774686048  0.13568182417277888  1.0000
  H   H194      1.0  0.5699038355282922  0.8592148422875502  0.21271788989242044  1.0000
  H   H195      1.0  0.6406765316365742  0.8190687324240346  0.17122686855262104  1.0000
  H   H196      1.0  0.6341424613889314  0.8380098351727384  0.09332413769113432  1.0000
  C   C309      1.0  0.6349918070369553  0.6857801821620122  0.4963145984759849  1.0000
  C   C310      1.0  0.6474525683409477  0.7207491274961365  0.4718026919170061  1.0000
  C   C311      1.0  0.6210105283504692  0.7298580429851412  0.45405731433341445  1.0000
  C   C312      1.0  0.5811357996127782  0.7050016974660022  0.4605295042040241  1.0000
  C   C313      1.0  0.5698086119352738  0.673277820703308  0.49060769027779705  1.0000
  C   C314      1.0  0.5963028420636367  0.6630405626060045  0.5053900542066275  1.0000
  H   H197      1.0  0.6775644371805448  0.7394033789964387  0.4656411933236617  1.0000
  H   H198      1.0  0.6318582193246581  0.7568526960745405  0.4335680422063961  1.0000
  H   H199      1.0  0.5398914260727675  0.6554020493981633  0.4997649068708778  1.0000
  H   H200      1.0  0.5852753137958496  0.6357179073346525  0.5264025958532504  1.0000
  C   C315      1.0  0.5048689826713395  0.6466812510630403  0.4176639192449133  1.0000
  C   C316      1.0  0.5096728718207157  0.6805038178753158  0.42970565906481456  1.0000
  C   C317      1.0  0.4760658349863724  0.6835595425754789  0.4292085530211902  1.0000
  C   C318      1.0  0.44089452424555087  0.6546928121342505  0.41922064606573706  1.0000
  C   C319      1.0  0.4373283970493305  0.6214274489534828  0.4087617965426397  1.0000
  C   C320      1.0  0.4693198267992193  0.6171403330072428  0.4084282122238918  1.0000
  C   C321      1.0  0.5512275951131727  0.7155669441489256  0.43586388722366143  1.0000
  C   C322      1.0  0.5613194296677838  0.7323562672275035  0.3857706420250119  1.0000
  C   C323      1.0  0.5462516124684622  0.7546578985208169  0.36640639936514346  1.0000
  C   C324      1.0  0.5521840460772927  0.7681471029474221  0.3229521361964775  1.0000
  C   C325      1.0  0.5746494915276519  0.7614293310193756  0.2973806088602993  1.0000
  C   C326      1.0  0.5895733385380759  0.7390091938197664  0.31603320497350545  1.0000
  C   C327      1.0  0.5827091752805187  0.7250826489972423  0.359267040857038  1.0000
  C   C328      1.0  0.5323208909819043  0.7325182894302348  0.503408170901125  1.0000
  C   C329      1.0  0.5341161394864227  0.756620685546493  0.531056424143234  1.0000
  C   C330      1.0  0.5581545273252728  0.794832983680671  0.5213334223820807  1.0000
  C   C331      1.0  0.5795973233537435  0.8082258865538818  0.48176116496198146  1.0000
  C   C332      1.0  0.5794375347634331  0.7836793883151325  0.4561471219773354  1.0000
  C   C333      1.0  0.5533605669237153  0.7452424165681595  0.4646666038433981  1.0000
  C   C334      1.0  0.5600404886270219  0.8230092544550972  0.5534916047962819  1.0000
  C   C335      1.0  0.44927532845193957  0.8184280770914585  0.5229980735413229  1.0000
  C   C336      1.0  0.45077948273910895  0.7948533586746034  0.5570334853571057  1.0000
  C   C337      1.0  0.4850459795326422  0.7952768600258272  0.5663313306335803  1.0000
  C   C338      1.0  0.5192372782553676  0.8212531117258272  0.5424440770636295  1.0000
  C   C339      1.0  0.5167778116960182  0.8435230594552026  0.5062534489139751  1.0000
  C   C340      1.0  0.48212808376649413  0.8416636553740958  0.49716164101084487  1.0000
  C   C341      1.0  0.59592570176262  0.8652247209817668  0.5501688433467927  1.0000
  C   C342      1.0  0.6327724365606501  0.8713531271278359  0.5461135045698569  1.0000
  C   C343      1.0  0.6648127544714536  0.9066096667263548  0.5504173963686049  1.0000
  C   C344      1.0  0.6592198346503313  0.9360105076871879  0.5551071994380613  1.0000
  C   C345      1.0  0.622852193522951  0.9302833321366886  0.5602712155096593  1.0000
  C   C346      1.0  0.5919597721359059  0.8951715982771116  0.5588126017237615  1.0000
  C   C347      1.0  0.5483822449845673  0.8199545914749319  0.634853474225805  1.0000
  C   C348      1.0  0.5464039520773697  0.8046325937352912  0.6769832114229717  1.0000
  C   C349      1.0  0.5597562349855032  0.779727106501887  0.6894860825070246  1.0000
  C   C350      1.0  0.5768002377370856  0.7718375339966537  0.657851169612428  1.0000
  C   C351      1.0  0.5806422649925088  0.7878273589772614  0.6153584141860354  1.0000
  C   C352      1.0  0.5637382667853272  0.8099825976638503  0.6030844735168096  1.0000
  H   H201      1.0  0.530451854987816  0.6438618424802174  0.41505084208138776  1.0000
  H   H202      1.0  0.47722133133501293  0.708869326435468  0.4362007419769069  1.0000
  H   H203      1.0  0.4164187742480415  0.6589084685966637  0.4195640416879776  1.0000
  H   H204      1.0  0.465395601139033  0.591434654072328  0.3972694897183233  1.0000
  H   H205      1.0  0.5278876756881554  0.7605044599774677  0.3846194490818817  1.0000
  H   H206      1.0  0.5385518543776382  0.7840098378349136  0.30946159389417094  1.0000
  H   H207      1.0  0.6058658345186232  0.7313954179385121  0.2963860697296008  1.0000
  H   H208      1.0  0.5925607082726801  0.7056788145347987  0.3712760763319639  1.0000
  H   H209      1.0  0.5150682409386758  0.7019857949253722  0.5152962002996424  1.0000
  H   H210      1.0  0.5177102812041907  0.7458332965400329  0.5609481954506478  1.0000
  H   H211      1.0  0.5982385244741724  0.8386931594207198  0.4718157736549962  1.0000
  H   H212      1.0  0.5993370137084356  0.7948269855202265  0.42844981221776346  1.0000
  H   H213      1.0  0.42636283740902986  0.7762984415724228  0.5792299242918341  1.0000
  H   H214      1.0  0.4848407489458408  0.7751844833199206  0.591974807528704  1.0000
  H   H215      1.0  0.542694765945583  0.8637142421932676  0.48772316705097657  1.0000
  H   H216      1.0  0.48193406789785  0.8616037802729732  0.4691994260569731  1.0000
  H   H217      1.0  0.6393140871212267  0.8486931131834781  0.5456687254781929  1.0000
  H   H218      1.0  0.6944298053801226  0.9111636620148955  0.5495572720957547  1.0000
  H   H219      1.0  0.619977156039743  0.9541745650198915  0.5661645384742062  1.0000
  H   H220      1.0  0.5640780461734841  0.8910593116354284  0.564826930764717  1.0000
  H   H221      1.0  0.5347793780095232  0.8364697760423169  0.6277958765801377  1.0000
  H   H222      1.0  0.5316723278804129  0.8095696173922419  0.7011157475802372  1.0000
  H   H223      1.0  0.5891488194655216  0.7537201655192586  0.6673354296552616  1.0000
  H   H224      1.0  0.5948412830376637  0.7817540603742797  0.5912422302012575  1.0000
  C   C353      1.0  0.9497934265123773  0.2724411916150927  0.04863397732585219  1.0000
  C   C354      1.0  0.9328205156046103  0.25621530608173676  0.08910822058036987  1.0000
  C   C355      1.0  0.9070772973776846  0.26409157547769146  0.10610172527297959  1.0000
  C   C356      1.0  0.9008458397422002  0.29275071553786036  0.0856844027049069  1.0000
  C   C357      1.0  0.921457711279611  0.3117323631529527  0.045364851002122335  1.0000
  C   C358      1.0  0.9445883819133261  0.3011362097870399  0.027361109093225956  1.0000
  H   H225      1.0  0.9357425691354897  0.2336552147675131  0.10919457517729261  1.0000
  H   H226      1.0  0.8911908282769452  0.2461361928830363  0.13536099454857128  1.0000
  H   H227      1.0  0.9184071858691196  0.33339916926149965  0.02532500198375444  1.0000
  H   H228      1.0  0.9576151602468328  0.3163910420179902  0.9956347262551988  1.0000
  C   C359      1.0  0.9098180763782518  0.37089722216399823  0.09478602191152972  1.0000
  C   C360      1.0  0.8727107034015992  0.3392668471430866  0.09864022896686749  1.0000
  C   C361      1.0  0.841856655170788  0.3453050573593405  0.09983982434056107  1.0000
  C   C362      1.0  0.8473282712360901  0.38137427054570516  0.09476607226109479  1.0000
  C   C363      1.0  0.8839764888272191  0.41193033860942724  0.08424573856944395  1.0000
  C   C364      1.0  0.9151706369356997  0.40618858913400735  0.08410936145089701  1.0000
  C   C365      1.0  0.8657276453987646  0.297524263352279  0.10249901463050179  1.0000
  C   C366      1.0  0.8523131616586002  0.283050254244534  0.15270770616691412  1.0000
  C   C367      1.0  0.8134550055892473  0.2639513728692362  0.16526944507192248  1.0000
  C   C368      1.0  0.8012183915114998  0.2511607318915872  0.20829135680001515  1.0000
  C   C369      1.0  0.8274085081160498  0.25844131978366247  0.2402611621871588  1.0000
  C   C370      1.0  0.8675413021472682  0.28107861442949106  0.22823610158319488  1.0000
  C   C371      1.0  0.8789478807538029  0.2927569625401725  0.18540093166491112  1.0000
  C   C372      1.0  0.8264583679228558  0.285740751904441  0.031440747198478385  1.0000
  C   C373      1.0  0.7989593289918913  0.2626038803233058  0.00338990346972359  1.0000
  C   C374      1.0  0.7797053814417241  0.22312694389460042  0.013634212489782995  1.0000
  C   C375      1.0  0.7864607677330472  0.20858350445102516  0.05266086332265947  1.0000
  C   C376      1.0  0.8137042168461048  0.2321577423164014  0.0804039591651968  1.0000
  C   C377      1.0  0.8337063778249303  0.2711819974931486  0.0703817126475196  1.0000
  C   C378      1.0  0.7479732892638087  0.19877871629766594  0.9807313562499598  1.0000
  C   C379      1.0  0.6476577871712931  0.19919855761440067  0.02962869755643257  1.0000
  C   C380      1.0  0.6711196647927141  0.2268499387391168  0.9973909495803718  1.0000
  C   C381      1.0  0.7039179585711179  0.22822094892832712  0.9839494637955283  1.0000
  C   C382      1.0  0.7120150247575507  0.1999319171061022  0.9990523303051164  1.0000
  C   C383      1.0  0.6894277852053683  0.1738977314157576  0.034621473677740024  1.0000
  C   C384      1.0  0.6569366845443627  0.17308455206886728  0.04901530998826405  1.0000
  C   C385      1.0  0.7416295094912959  0.1573134246297177  0.9795376476583617  1.0000
  C   C386      1.0  0.7722069193087331  0.1493887723903957  0.9848422924133535  1.0000
  C   C387      1.0  0.7656871901698372  0.11306991539442611  0.9861766296883453  1.0000
  C   C388      1.0  0.7285745524800374  0.08354602890638733  0.979750225900701  1.0000
  C   C389      1.0  0.6991235506560098  0.09142235890751811  0.9723099874188229  1.0000
  C   C390      1.0  0.7058317002914366  0.12784569819098004  0.9703019406373403  1.0000
  C   C391      1.0  0.7337638189188128  0.21283603008443272  0.8986172868860052  1.0000
  C   C392      1.0  0.7443887338529731  0.2281669905458113  0.855921764520766  1.0000
  C   C393      1.0  0.782570943664252  0.24432905945815536  0.8424737378669273  1.0000
  C   C394      1.0  0.8090844541299247  0.245557237175299  0.8716689066263673  1.0000
  C   C395      1.0  0.7982143192128148  0.23087198952678012  0.9152474463059393  1.0000
  C   C396      1.0  0.7597683802303877  0.21471212603443993  0.9301802502216562  1.0000
  H   H229      1.0  0.9357159162449696  0.3681912406678053  0.09741937576893996  1.0000
  H   H230      1.0  0.8131170502270804  0.32080980766145056  0.10418819404847544  1.0000
  H   H231      1.0  0.8221501089181412  0.384808069967229  0.09472028617812939  1.0000
  H   H232      1.0  0.9447535528047482  0.4298216743697766  0.07798252946322642  1.0000
  H   H233      1.0  0.7913377119683003  0.2587995398629861  0.1423970073265549  1.0000
  H   H234      1.0  0.7703643427573648  0.23663449101165637  0.21795712595746167  1.0000
  H   H235      1.0  0.889453509659253  0.2881068394134486  0.2520406131603582  1.0000
  H   H236      1.0  0.9102793383049845  0.31035817525599324  0.17873120755065078  1.0000
  H   H237      1.0  0.8402659841573259  0.3159660175411889  0.01942870292381468  1.0000
  H   H238      1.0  0.7936077239608844  0.2767490171625732  0.9737293559907505  1.0000
  H   H239      1.0  0.7699665659703968  0.1778832360497512  0.06304154946126583  1.0000
  H   H240      1.0  0.8186165985468399  0.21941846893085057  0.1102797053435727  1.0000
  H   H241      1.0  0.6645528677825874  0.24809480643894732  0.9828571386733536  1.0000
  H   H242      1.0  0.7226844679904347  0.24887903529385272  0.9570828443983286  1.0000
  H   H243      1.0  0.6977630771108086  0.15409471504192504  0.051239205446583676  1.0000
  H   H244      1.0  0.6385942627313674  0.15243228667906178  0.07373783252888372  1.0000
  H   H245      1.0  0.8014529011842745  0.17249575026384284  0.9887537320723981  1.0000
  H   H246      1.0  0.7886102217248676  0.10673218527189178  0.991177124035067  1.0000
  H   H247      1.0  0.6698955770133422  0.06998725476802309  0.9680159069235675  1.0000
  H   H248      1.0  0.6828905484158927  0.13472241301205096  0.960578938876187  1.0000
  H   H249      1.0  0.7025397314715349  0.19959041454039272  0.9064794114180645  1.0000
  H   H250      1.0  0.723133818801848  0.22597015319183275  0.8329011760926602  1.0000
  H   H251      1.0  0.8395388550141536  0.25586469398918815  0.8617594900988549  1.0000
  H   H252      1.0  0.8198848306951838  0.2306610333963334  0.9372051435223482  1.0000
  C   C397      1.0  0.9487497398659498  0.2595052028120526  0.5495801651372375  1.0000
  C   C398      1.0  0.9283488806580233  0.24086265649819885  0.5884852539198407  1.0000
  C   C399      1.0  0.8987792579795473  0.2454113500658418  0.6024401979207964  1.0000
  C   C400      1.0  0.8877258931501375  0.2685813006410046  0.5773003679382921  1.0000
  C   C401      1.0  0.9083620194236702  0.2870478830211305  0.5377706261666607  1.0000
  C   C402      1.0  0.9382533972617765  0.28267912136121615  0.5245319073206639  1.0000
  H   H253      1.0  0.935321076553709  0.22283864153556562  0.6102074798524275  1.0000
  H   H254      1.0  0.8843607640204769  0.22912569427547086  0.6331266848111098  1.0000
  H   H255      1.0  0.8996360806277841  0.304470734365325  0.5178733026836951  1.0000
  H   H256      1.0  0.9535429531248268  0.2979304126038934  0.4942901995220145  1.0000
  C   C403      1.0  0.8901849456294881  0.3452487320307993  0.5836580926014882  1.0000
  C   C404      1.0  0.8547448769918549  0.31254485249717495  0.5804563372284074  1.0000
  C   C405      1.0  0.8225668392904022  0.3165414914369307  0.571740629292493  1.0000
  C   C406      1.0  0.825763400084568  0.35177722907479314  0.566694348862806  1.0000
  C   C407      1.0  0.8607468447603726  0.38369654797103797  0.5676951018190498  1.0000
  C   C408      1.0  0.8929081908506755  0.3805383159819341  0.5753184846327896  1.0000
  C   C409      1.0  0.8502915289806557  0.2711529190676178  0.5895546860005327  1.0000
  C   C410      1.0  0.8375778479664607  0.26188508672777133  0.6393961077428725  1.0000
  C   C411      1.0  0.7990506262830311  0.2447241404128408  0.6511565901959863  1.0000
  C   C412      1.0  0.7861736412520496  0.23355088131616683  0.6939044395131861  1.0000
  C   C413      1.0  0.8131610416541605  0.24285706548194214  0.726196709741786  1.0000
  C   C414      1.0  0.8520232440941617  0.2634286193923759  0.7153911941619507  1.0000
  C   C415      1.0  0.8639117496040827  0.27408715859764915  0.6724863639888695  1.0000
  C   C416      1.0  0.8123860580314108  0.2502730804782397  0.5171014801422783  1.0000
  C   C417      1.0  0.7899516990985068  0.22366265019608525  0.4911832867493621  1.0000
  C   C418      1.0  0.7714338801361866  0.18485437781371514  0.5080783513635962  1.0000
  C   C419      1.0  0.7765083648326465  0.17446569909724413  0.5514508536698239  1.0000
  C   C420      1.0  0.8020505379413502  0.20236162432356294  0.5746872907747664  1.0000
  C   C421      1.0  0.8197655104847906  0.24044189515785078  0.5593456825468587  1.0000
  C   C422      1.0  0.7424080452698248  0.15433260516937136  0.4785495982854081  1.0000
  C   C423      1.0  0.6383117144984827  0.1616563103056689  0.4900517164132171  1.0000
  C   C424      1.0  0.6659756202687153  0.18630959178210293  0.4591395695425743  1.0000
  C   C425      1.0  0.6998875578690174  0.1855296914189127  0.45705957320214596  1.0000
  C   C426      1.0  0.7059619764215666  0.1600052485586376  0.4843415377805317  1.0000
  C   C427      1.0  0.679565727475017  0.13892119043039042  0.5189721686748648  1.0000
  C   C428      1.0  0.644990655375666  0.13805105274704033  0.5200612233625419  1.0000
  C   C429      1.0  0.7333630124887515  0.11131858074247887  0.48938781821021876  1.0000
  C   C430      1.0  0.7616420672322706  0.10330296423633252  0.506753825392097  1.0000
  C   C431      1.0  0.7545589313158472  0.0663791164965761  0.5156428663563805  1.0000
  C   C432      1.0  0.7204610051105355  0.03697488584236219  0.5048438916455402  1.0000
  C   C433      1.0  0.693245355113635  0.04484781503120905  0.48513625336343125  1.0000
  C   C434      1.0  0.6993138004777891  0.0807904175712896  0.47795110877236036  1.0000
  C   C435      1.0  0.7351306748851142  0.15582254265826406  0.39378647697845515  1.0000
  C   C436      1.0  0.7490227936425616  0.163870771176091  0.35175812325071165  1.0000
  C   C437      1.0  0.7888147218210471  0.18252734862698464  0.3435198987514365  1.0000
  C   C438      1.0  0.8125237784514016  0.18862558877997843  0.3784841139645176  1.0000
  C   C439      1.0  0.7975978184622561  0.17821115380015798  0.4202868077119315  1.0000
  C   C440      1.0  0.7591738647564964  0.16399798044632216  0.42944729473950977  1.0000
  H   H257      1.0  0.9155798722912403  0.3434416626777884  0.5910525450004009  1.0000
  H   H258      1.0  0.7943846224234574  0.2912116179650346  0.5724797474889345  1.0000
  H   H259      1.0  0.7997231349409176  0.3531238538880627  0.5593653051538438  1.0000
  H   H260      1.0  0.9204390241877429  0.4062648507297804  0.5766986079907468  1.0000
  H   H261      1.0  0.7775068177858828  0.2364788449868415  0.6268507210103519  1.0000
  H   H262      1.0  0.7557143875788446  0.21854087374590092  0.701658639706827  1.0000
  H   H263      1.0  0.8734523723576926  0.27381501040904904  0.7402432259086725  1.0000
  H   H264      1.0  0.895973153868  0.29032234253712763  0.6658997089108465  1.0000
  H   H265      1.0  0.8276088992543333  0.2798758338028407  0.5008081754755895  1.0000
  H   H266      1.0  0.7848688687652385  0.23365355962485918  0.45917554432204716  1.0000
  H   H267      1.0  0.7603762988472843  0.1458232370039056  0.5663509532405654  1.0000
  H   H268      1.0  0.8109853972913939  0.1934301271584383  0.6055438402589512  1.0000
  H   H269      1.0  0.6613206137813974  0.20496631726595527  0.43675017497249174  1.0000
  H   H270      1.0  0.7227252112401119  0.204577906208141  0.43163848585285414  1.0000
  H   H271      1.0  0.6844746228021753  0.12005485788901356  0.5427122526924268  1.0000
  H   H272      1.0  0.6242395259583725  0.11741930140570127  0.5444423125416197  1.0000
  H   H273      1.0  0.7901963017112039  0.1263814479494026  0.5131933109177313  1.0000
  H   H274      1.0  0.7768006846597206  0.060872790237264905  0.5299412059795766  1.0000
  H   H275      1.0  0.6662682479849626  0.02184737491350508  0.4756356411481099  1.0000
  H   H276      1.0  0.677073457977249  0.08629324514894526  0.462557173592492  1.0000
  H   H277      1.0  0.7045557420748952  0.14213228406526837  0.40033388684250787  1.0000
  H   H278      1.0  0.728780870381917  0.1590979246352213  0.3252378428668004  1.0000
  H   H279      1.0  0.8433758953263777  0.20162912165043456  0.37203481713539066  1.0000
  H   H280      1.0  0.8184965049528032  0.1839651251373462  0.4459826115590157  1.0000
  C   C441      1.0  0.3477181434596442  0.554625822530207  0.9573117748131555  1.0000
  C   C442      1.0  0.3236086833009602  0.5520405372454226  0.9228904517266644  1.0000
  C   C443      1.0  0.29526696841577743  0.5161585714116117  0.9142041777012277  1.0000
  C   C444      1.0  0.2905625289629814  0.4829480408306235  0.9381895443061044  1.0000
  C   C445      1.0  0.3130010883074005  0.4872387647701742  0.9751912402111459  1.0000
  C   C446      1.0  0.3416103448297745  0.5222173949295621  0.9833902194964507  1.0000
  H   H281      1.0  0.3287094733604088  0.5772026014392732  0.9016358979272242  1.0000
  H   H282      1.0  0.276496945866016  0.5134990555979027  0.8877496330507167  1.0000
  H   H283      1.0  0.3084777967328129  0.46277026944649174  0.9973288113249188  1.0000
  H   H284      1.0  0.36025000648127525  0.5249703089562981  0.011828409377627459  1.0000
  C   C447      1.0  0.3113473099661217  0.42092593689963864  0.9317173544354947  1.0000
  C   C448      1.0  0.27303468025139743  0.41049177655253055  0.9394846363671259  1.0000
  C   C449      1.0  0.24875169686977985  0.3726032794775453  0.9560166827521341  1.0000
  C   C450      1.0  0.26424244354526233  0.3506677260318079  0.9731864638641607  1.0000
  C   C451      1.0  0.3024779306612531  0.363524987210283  0.9695824450478838  1.0000
  C   C452      1.0  0.3259730002926214  0.3983716738822294  0.9476574521764505  1.0000
  C   C453      1.0  0.2585085158856582  0.4406924381016057  0.9283586182065325  1.0000
  C   C454      1.0  0.2489697418197724  0.43618769607343694  0.8780953104140115  1.0000
  C   C455      1.0  0.2121496268449267  0.4091971820383528  0.8674827504695304  1.0000
  C   C456      1.0  0.20199558698076775  0.40321343175987473  0.8247021968073553  1.0000
  C   C457      1.0  0.22908869376916471  0.4254067327470412  0.791399362319019  1.0000
  C   C458      1.0  0.2651789732982765  0.45283950530567885  0.8017797214141755  1.0000
  C   C459      1.0  0.275543987479808  0.45701259966816604  0.844259395102578  1.0000
  C   C460      1.0  0.2173053693043364  0.4175210950096817  0.0010767292590867505  1.0000
  C   C461      1.0  0.18864433106648043  0.4143581139578654  0.026952108554964996  1.0000
  C   C462      1.0  0.16589021443461363  0.42994070394307227  0.012097500728084134  1.0000
  C   C463      1.0  0.17228322099996887  0.4470014731379264  0.9694418163644902  1.0000
  C   C464      1.0  0.20102612236404144  0.4502058856689044  0.9425523039258078  1.0000
  C   C465      1.0  0.22377819700428214  0.43485464762039094  0.9583713955903549  1.0000
  C   C466      1.0  0.1332664564541416  0.4274543721759128  0.04207086937621127  1.0000
  C   C467      1.0  0.038482119343728666  0.3199680815901195  0.004059365520833191  1.0000
  C   C468      1.0  0.06294673949469255  0.3195309293291882  0.03640516865269227  1.0000
  C   C469      1.0  0.09253659553039212  0.35268205969039707  0.048817121657713805  1.0000
  C   C470      1.0  0.09806875519152483  0.38758931379374495  0.03004152450305564  1.0000
  C   C471      1.0  0.07305947754664556  0.3868934744499967  0.9959225244909814  1.0000
  C   C472      1.0  0.0433631003513382  0.35410907806953423  0.9843451863697291  1.0000
  C   C473      1.0  0.12634286380821488  0.46271213129010014  0.033407488392257316  1.0000
  C   C474      1.0  0.15688270619310188  0.49909984832253246  0.022285558274786038  1.0000
  C   C475      1.0  0.15051505549273497  0.5287552457363001  0.013370648173627143  1.0000
  C   C476      1.0  0.11324922227195158  0.522654415415082  0.014141129836899968  1.0000
  C   C477      1.0  0.08326437405550684  0.487639312881077  0.02654856964231491  1.0000
  C   C478      1.0  0.08949975465646709  0.4578461859423064  0.03849661151386198  1.0000
  C   C479      1.0  0.11615572886313262  0.40752453383008946  0.12492732737110497  1.0000
  C   C480      1.0  0.12530817783922313  0.40670250004433317  0.16818307516577094  1.0000
  C   C481      1.0  0.1627866641815187  0.4263018915403041  0.1802892425452735  1.0000
  C   C482      1.0  0.19130515522338615  0.4486763907636651  0.14922142299254834  1.0000
  C   C483      1.0  0.18203961832493082  0.4522035854944998  0.10622175021903889  1.0000
  C   C484      1.0  0.14440422158047178  0.4283722479554619  0.09269556018070928  1.0000
  H   H285      1.0  0.3310623102671065  0.4500536813383566  0.9180698312773068  1.0000
  H   H286      1.0  0.2179386686161782  0.36177413936354313  0.9606803223456104  1.0000
  H   H287      1.0  0.2457894864531666  0.32251527300704763  0.9910561179586583  1.0000
  H   H288      1.0  0.356975552614309  0.4097680494508187  0.9446388411352312  1.0000
  H   H289      1.0  0.19133759582741924  0.390881599457161  0.8938359116506179  1.0000
  H   H290      1.0  0.1724727629586593  0.3812221476129286  0.818887364270749  1.0000
  H   H291      1.0  0.28657570967433477  0.47139522456069555  0.775877880193747  1.0000
  H   H292      1.0  0.3041047446118642  0.480169823271216  0.8501461771981299  1.0000
  H   H293      1.0  0.23697461431546438  0.408817720653065  0.015172265129625842  1.0000
  H   H294      1.0  0.18481657400622267  0.3999718783648293  0.05945617212162494  1.0000
  H   H295      1.0  0.15439171278901065  0.4585051316533413  0.9554280045425789  1.0000
  H   H296      1.0  0.20430743127575485  0.46271176294340016  0.9092821737824468  1.0000
  H   H297      1.0  0.05860220315171523  0.2930050485319003  0.05392259695180611  1.0000
  H   H298      1.0  0.11162523463570653  0.3522141224508327  0.07486286199603365  1.0000
  H   H299      1.0  0.07744163053682057  0.4132632177632255  0.9771927461236336  1.0000
  H   H300      1.0  0.023925148714018345  0.3532515187883139  0.9599281224111788  1.0000
  H   H301      1.0  0.18612521630655748  0.5047932931107829  0.020309136594894424  1.0000
  H   H302      1.0  0.1742433755674163  0.5580524289099152  0.008338757655729237  1.0000
  H   H303      1.0  0.053481663421249256  0.48234001714755814  0.02633124926995412  1.0000
  H   H304      1.0  0.06458463211141945  0.43074744591165876  0.05074733209815534  1.0000
  H   H305      1.0  0.08614140513212436  0.3881084459939928  0.11615929248323009  1.0000
  H   H306      1.0  0.10285365247643445  0.38769679888599945  0.19265279311973163  1.0000
  H   H307      1.0  0.22113982194285525  0.4643571015691509  0.15826809889961269  1.0000
  H   H308      1.0  0.20445723016333753  0.46733016317455617  0.08193027094519352  1.0000
  C   C485      1.0  0.3347714969102811  0.5342012977992635  0.4323154657938426  1.0000
  C   C486      1.0  0.30657514013455955  0.5272803700272127  0.40185136844936126  1.0000
  C   C487      1.0  0.27861168730911384  0.4904760609912872  0.39710923842794443  1.0000
  C   C488      1.0  0.27971362570312663  0.45979930186503276  0.42114366155028404  1.0000
  C   C489      1.0  0.3085586747118907  0.46875488146161215  0.45107794850616567  1.0000
  C   C490      1.0  0.3356087992725673  0.5049232414832192  0.4573735349139087  1.0000
  H   H309      1.0  0.3034032008207069  0.5496465773645487  0.38368737525008595  1.0000
  H   H310      1.0  0.25477979566421205  0.48475547389467516  0.37471984385786183  1.0000
  H   H311      1.0  0.3098318557167079  0.44710420447398763  0.47260394836890063  1.0000
  H   H312      1.0  0.35684165000258544  0.5097463670093654  0.48133927891180023  1.0000
  C   C491      1.0  0.2951024359751994  0.3937939253354985  0.4194659286530517  1.0000
  C   C492      1.0  0.25809436418224846  0.385504160834871  0.43203420842705514  1.0000
  C   C493      1.0  0.23548914293101597  0.350954125639446  0.4578771818265282  1.0000
  C   C494      1.0  0.25082761155557715  0.32863025846625765  0.4741018073687689  1.0000
  C   C495      1.0  0.28888351826852326  0.33941474260643645  0.4649969177276485  1.0000
  C   C496      1.0  0.3099879664200347  0.3710568149445573  0.43599143416906505  1.0000
  C   C497      1.0  0.24561233328271284  0.41721341025783076  0.4207577502795756  1.0000
  C   C498      1.0  0.2296937081451755  0.4073451947202813  0.37317946920952577  1.0000
  C   C499      1.0  0.19022385724355087  0.3818028408615768  0.36630501589572007  1.0000
  C   C500      1.0  0.17674216087875438  0.3758561746122287  0.32431067468675095  1.0000
  C   C501      1.0  0.20135607800653882  0.396162030325625  0.2885206747630439  1.0000
  C   C502      1.0  0.2397707548317712  0.42111654874286647  0.2950589274105036  1.0000
  C   C503      1.0  0.25371213680945376  0.4254876286612269  0.3362039367804644  1.0000
  C   C504      1.0  0.21879866911242743  0.4078075830213623  0.49985320860231114  1.0000
  C   C505      1.0  0.1956110998197862  0.40992120692126477  0.5290091321477809  1.0000
  C   C506      1.0  0.17058820271313224  0.42302951533940547  0.5153517976861004  1.0000
  C   C507      1.0  0.16829315148152132  0.4321501990888535  0.4708477250437276  1.0000
  C   C508      1.0  0.1903045804917469  0.42804436477692426  0.4422706684043205  1.0000
  C   C509      1.0  0.21738385900341328  0.4179382304254519  0.45507441946214594  1.0000
  C   C510      1.0  0.1424552782661211  0.42326871749741546  0.548916266934239  1.0000
  C   C511      1.0  0.04214732690839814  0.31623501179047336  0.5217487675632668  1.0000
  C   C512      1.0  0.06494353932448337  0.3163265884610445  0.5560131097938767  1.0000
  C   C513      1.0  0.09640151393532168  0.3497798803390699  0.5645652960049147  1.0000
  C   C514      1.0  0.10334578622304087  0.3839886225252287  0.5430131326661994  1.0000
  C   C515      1.0  0.07755665610744522  0.3832838134588108  0.5112441319572042  1.0000
  C   C516      1.0  0.047843549750879566  0.3493253234291362  0.4994901903730854  1.0000
  C   C517      1.0  0.13758487267286798  0.45937361144574224  0.5394385477604005  1.0000
  C   C518      1.0  0.16690663689507168  0.4945618810443977  0.5198257520787198  1.0000
  C   C519      1.0  0.16065669040558392  0.5241287143439478  0.5089842617194117  1.0000
  C   C520      1.0  0.12555504092903458  0.5204113374863139  0.5180008496290988  1.0000
  C   C521      1.0  0.09755589871932166  0.4870527081311163  0.5412111232580611  1.0000
  C   C522      1.0  0.10316211190400017  0.45652529218445537  0.5519054440649804  1.0000
  C   C523      1.0  0.13594292880381947  0.4116023187287479  0.6348730968327901  1.0000
  C   C524      1.0  0.15228173373918774  0.41622472820657014  0.6745827125017856  1.0000
  C   C525      1.0  0.1904181855293466  0.44362039126308034  0.6786936486651794  1.0000
  C   C526      1.0  0.21257674708542662  0.464886674025143  0.6419045310024772  1.0000
  C   C527      1.0  0.19788130796974146  0.4578294033699107  0.6011222128182924  1.0000
  C   C528      1.0  0.15896562353585442  0.4304632565612114  0.5972794522836959  1.0000
  H   H313      1.0  0.31407712134519084  0.42010827357154923  0.3988916252290976  1.0000
  H   H314      1.0  0.20612026132857525  0.3408033970004234  0.4667237071423438  1.0000
  H   H315      1.0  0.2315797036389871  0.3025344076834734  0.49443082820540823  1.0000
  H   H316      1.0  0.3384200130841933  0.37724062554040894  0.426690318458093  1.0000
  H   H317      1.0  0.1713774613652434  0.3689168087390406  0.395189493377895  1.0000
  H   H318      1.0  0.14612232383665066  0.3570781882582146  0.31958064527297503  1.0000
  H   H319      1.0  0.25995697435744713  0.436006194403242  0.2673285862625066  1.0000
  H   H320      1.0  0.284577164276206  0.4457105381355808  0.33916695043522554  1.0000
  H   H321      1.0  0.23838522697244627  0.39819292611109286  0.512820481385013  1.0000
  H   H322      1.0  0.1978443783664746  0.39944677501201875  0.5631557387364797  1.0000
  H   H323      1.0  0.14918951066780287  0.442716322131186  0.45902837476965835  1.0000
  H   H324      1.0  0.18882603553669966  0.4369121770464366  0.40872909219766446  1.0000
  H   H325      1.0  0.06023817795811049  0.2904850611287626  0.574981629879544  1.0000
  H   H326      1.0  0.11525985561907116  0.3487682834161968  0.5902316659415212  1.0000
  H   H327      1.0  0.08187033324322282  0.4089861375213004  0.4907058033127229  1.0000
  H   H328      1.0  0.030232565839558006  0.34984936855720195  0.4723750179540736  1.0000
  H   H329      1.0  0.1950958630035084  0.4983361945225761  0.5114665215030361  1.0000
  H   H330      1.0  0.18490420705328942  0.5502554680485672  0.4948788777315697  1.0000
  H   H331      1.0  0.07095776420429185  0.4851912243055018  0.5514704762768091  1.0000
  H   H332      1.0  0.08113316879309751  0.4308795935456211  0.5708085554606973  1.0000
  H   H333      1.0  0.10498087743588824  0.39123042367213823  0.6320866866408956  1.0000
  H   H334      1.0  0.13548908626223288  0.4009245062741951  0.7044515907677167  1.0000
  H   H335      1.0  0.24342012235462462  0.4842841855240006  0.6452043994104838  1.0000
  H   H336      1.0  0.21675186452863024  0.47382095280063846  0.5723096848950631  1.0000
  C   C529      1.0  0.21892982393056729  0.42004154208848204  0.7434482517162507  1.0000
  C   C530      1.0  0.20704384961751887  0.4492088080188833  0.7246988507419178  1.0000
  H   H337      1.0  0.243623833563279  0.4245372392034569  0.724829668121819  1.0000
  H   H338      1.0  0.19620118752759869  0.39023231906773703  0.7412341675614238  1.0000
  H   H339      1.0  0.23025255303266248  0.47840492117158195  0.7270862679251139  1.0000
  H   H340      1.0  0.18445766988602455  0.44652185323811655  0.7453189402488373  1.0000
  C   C531      1.0  0.17157133238766692  0.42307132520141005  0.2299360734350104  1.0000
  C   C532      1.0  0.1862499084801408  0.3944403710472426  0.24173514701519502  1.0000
  H   H341      1.0  0.14687608763215726  0.416766963217075  0.24963847902192327  1.0000
  H   H342      1.0  0.1944264430953404  0.45139807043579516  0.23652730712133005  1.0000
  H   H343      1.0  0.2095325012432035  0.4003673039042192  0.21843853391549795  1.0000
  H   H344      1.0  0.16401220180356438  0.36443444897232685  0.23811510306988035  1.0000
  C   C533      1.0  0.9781261481522382  0.2497899548092643  0.534562329924585  1.0000
  C   C534      1.0  0.01193096671759417  0.28059420963551046  0.5027671657396093  1.0000
  H   H345      1.0  0.9904191338389402  0.2408321739360072  0.5628744813696922  1.0000
  H   H346      1.0  0.9627667008127139  0.2236737563036316  0.5185993391421466  1.0000
  H   H347      1.0  4.3494652401730384e-05  0.28811289706800414  0.4720119997248479  1.0000
  H   H348      1.0  0.02651405655275986  0.2669172104132331  0.49201724754623194  1.0000
  C   C535      1.0  0.9729615937205238  0.2573102642301598  0.028186828395162043  1.0000
  C   C536      1.0  0.004345374918782626  0.2826505031751555  0.9921844178603059  1.0000
  H   H349      1.0  0.986177005254247  0.24823693861795448  0.05570694601365785  1.0000
  H   H350      1.0  0.9517104545876948  0.23069194317359773  0.014982645337459119  1.0000
  H   H351      1.0  0.0151175789302009  0.2654202011658763  0.9801655710818873  1.0000
  H   H352      1.0  0.9898463380439881  0.28856194749810493  0.9641567942164836  1.0000
  C   C537      1.0  0.7943335977927527  0.2583873025314585  0.7940680368690025  1.0000
  C   C538      1.0  0.7992053701465411  0.22852093424895406  0.7741870655585246  1.0000
  H   H353      1.0  0.8210467469284909  0.2862334402221907  0.7885377321336812  1.0000
  H   H354      1.0  0.7716323801095815  0.26181570797416326  0.7764730992722972  1.0000
  H   H355      1.0  0.7724330175603484  0.20052517198904435  0.7760741062635987  1.0000
  H   H356      1.0  0.8202219292603558  0.2219274448741378  0.7925047691791837  1.0000
  C   C539      1.0  0.8120730235113855  0.24168931464324472  0.28667778492368634  1.0000
  C   C540      1.0  0.8036331115392024  0.19948098735027384  0.2976330864035086  1.0000
  H   H357      1.0  0.8330065721014828  0.25902678292342296  0.3117250616099107  1.0000
  H   H358      1.0  0.7856588356561685  0.24375457048371657  0.2921753853140324  1.0000
  H   H359      1.0  0.8287400789664763  0.19660136966903116  0.2914899022433503  1.0000
  H   H360      1.0  0.7824760745808725  0.18309650113375553  0.2730619849801245  1.0000
  C   C541      1.0  0.36637580250273455  0.5740522684100056  0.438427907869724  1.0000
  C   C542      1.0  0.39628364928788257  0.589868397407908  0.40056935812633  1.0000
  H   H361      1.0  0.3529639245572239  0.5916993508831601  0.44014161554642917  1.0000
  H   H362      1.0  0.3821922697564109  0.5739452226043805  0.46844722612254147  1.0000
  H   H363      1.0  0.38777352292595807  0.60067499090772  0.37047809031456685  1.0000
  H   H364      1.0  0.39936461373354043  0.5666135159982035  0.3912061041599048  1.0000
  C   C543      1.0  0.6938761781436726  0.9768486185546977  0.5582697095971716  1.0000
  C   C544      1.0  0.7147763684350065  0.996998226102722  0.5130559526688351  1.0000
  H   H365      1.0  0.7137349285831465  0.974420060057058  0.5827718048526579  1.0000
  H   H366      1.0  0.682829066905035  0.9928753087461756  0.573261381333844  1.0000
  H   H367      1.0  0.6981130464102236  0.9816460562334354  0.4852965046538102  1.0000
  H   H368      1.0  0.7411389778161883  0.9951016688845632  0.5130232483238598  1.0000
  C   C545      1.0  0.38111134202721036  0.5931563704920639  0.9674043356725297  1.0000
  C   C546      1.0  0.4160277752030742  0.6079854189986932  0.9363973462014585  1.0000
  H   H369      1.0  0.37034029615461705  0.6137368583929632  0.9640161655330898  1.0000
  H   H370      1.0  0.38951053361168253  0.5909724761367174  0.002262283818451619  1.0000
  H   H371      1.0  0.4087649056322167  0.6149777368147019  0.9034738821148355  1.0000
  H   H372      1.0  0.4223619976121537  0.5844191032899321  0.9357726932124305  1.0000
  C   C547      1.0  0.7153756983278684  0.023084999858094868  0.030338283729361402  1.0000
  C   C548      1.0  0.7179758797756254  0.04214164934161779  0.9823011648087736  1.0000
  H   H373      1.0  0.7125668193111714  0.03904136129655145  0.0552762297903333  1.0000
  H   H374      1.0  0.7437028864909319  0.025610484986509086  0.04020508649537105  1.0000
  H   H375      1.0  0.7386882602780601  0.03981220285366671  0.9631854751707174  1.0000
  H   H376      1.0  0.689705329339701  0.02561136783839979  0.9665671044411623  1.0000
  C   C549      1.0  0.5854879535378135  0.7917187033620865  0.7656217976094964  1.0000
  C   C550      1.0  0.5556450706743641  0.7620281988409884  0.7376693939591173  1.0000
  H   H377      1.0  0.5871760604775437  0.8196501990853713  0.7582469678175688  1.0000
  H   H378      1.0  0.6152069785273668  0.7989846167214422  0.7546527603047847  1.0000
  H   H379      1.0  0.5594391699567137  0.7371782579438347  0.741711650998063  1.0000
  H   H380      1.0  0.5266115392564843  0.7521460521014818  0.7500250954907813  1.0000
  C   C551      1.0  0.6078623085778212  0.8212589148962611  0.24317413819410771  1.0000
  C   C552      1.0  0.5806507135692491  0.7776668510221685  0.2496342274570765  1.0000
  H   H381      1.0  0.6380102095777294  0.829127626459735  0.251534022856691  1.0000
  H   H382      1.0  0.5998075380508335  0.8338092872565034  0.2667072037079761  1.0000
  H   H383      1.0  0.5913378016306398  0.7642253527211671  0.23009403542124104  1.0000
  H   H384      1.0  0.5522116825031758  0.7702596447730286  0.2355628559880088  1.0000
  C   C553      1.0  0.8651970699132644  0.43621295084929373  0.5089711799814216  1.0000
  C   C554      1.0  0.8639633354935753  0.4224642752758852  0.5581683261277482  1.0000
  H   H385      1.0  0.892045510718197  0.4413120574095381  0.49480692817262406  1.0000
  H   H386      1.0  0.8428063279174698  0.41376008607523074  0.49236718403746754  1.0000
  H   H387      1.0  0.838705572370056  0.4196966902617975  0.575642257648045  1.0000
  H   H388      1.0  0.8909987210593961  0.4431883023861505  0.572761004855722  1.0000
  C   C555      1.0  0.6729262500839219  0.6763778545303633  0.5604837937519986  1.0000
  C   C556      1.0  0.663368587988182  0.6726376233210353  0.5116594771383903  1.0000
  H   H389      1.0  0.6923705194387448  0.7067260675111887  0.565389445498292  1.0000
  H   H390      1.0  0.6451578628145012  0.6659178685123025  0.5775391096566117  1.0000
  H   H391      1.0  0.6519581447709222  0.6436294656760884  0.5027998700845846  1.0000
  H   H392      1.0  0.6903739803890916  0.6905703480711552  0.49239661794794526  1.0000
  C   C557      1.0  0.891202460263949  0.4526595869632706  0.07138311969066294  1.0000
  C   C558      1.0  0.8870464366276554  0.4608595472157178  0.02170345363857088  1.0000
  H   H393      1.0  0.8692287327202685  0.45517630520074015  0.08892965485680478  1.0000
  H   H394      1.0  0.9189309498519482  0.4743342972354333  0.08162186897207656  1.0000
  H   H395      1.0  0.8606546642749878  0.43569695770901773  0.011923938769300277  1.0000
  H   H396      1.0  0.911502864516373  0.46291856242083773  0.0024633934860389672  1.0000
  C   C559      1.0  0.7144852184743212  0.7174015780887828  0.05435102387098239  1.0000
  C   C560      1.0  0.6911082633276874  0.7089160785941211  0.011562850096428115  1.0000
  H   H397      1.0  0.6977383032779794  0.7168380393857373  0.08195152876942746  1.0000
  H   H398      1.0  0.7396232368785993  0.7468274101960137  0.0516221733262443  1.0000
  H   H399      1.0  0.7115657193704928  0.7208305176658942  0.9825300952236007  1.0000
  H   H400      1.0  0.6753227193087007  0.6777868246560854  0.010112939775759111  1.0000
  C   C561      1.0  0.7966896431629229  0.5577176770629907  0.7985387208271244  1.0000
  C   C562      1.0  0.7896265657678359  0.5908995835039752  0.783076106522808  1.0000
  H   H401      1.0  0.8167821776878749  0.5575536139035695  0.775030837658887  1.0000
  H   H402      1.0  0.7701858004054866  0.5303817388787253  0.7996506685562843  1.0000
  H   H403      1.0  0.7665502030172959  0.588068671919723  0.8049749359182613  1.0000
  H   H404      1.0  0.8164721859033773  0.618834381172558  0.7865362262211936  1.0000
  C   C563      1.0  0.7993089048119101  0.5666188219276367  0.29796503550500775  1.0000
  C   C564      1.0  0.7956521868849299  0.6017632681864225  0.2821158558430834  1.0000
  H   H405      1.0  0.7706169877285707  0.5410755065917386  0.2954860461558808  1.0000
  H   H406      1.0  0.8192186446231373  0.5649898985470714  0.27525710061486586  1.0000
  H   H407      1.0  0.8237694457690897  0.628269283354132  0.2869672183767177  1.0000
  H   H408      1.0  0.7733550943176768  0.6030162790932797  0.3011903380064707  1.0000
  C   C565      1.0  0.379166294507583  0.791780089408929  0.4944896960263638  1.0000
  C   C566      1.0  0.413399030512427  0.8232001150604171  0.5162348150004332  1.0000
  H   H409      1.0  0.3732716292435988  0.7636429005587596  0.5107928119965451  1.0000
  H   H410      1.0  0.38578814874063455  0.7919578461665326  0.4590349156386534  1.0000
  H   H411      1.0  0.4205214736460266  0.8502311880408451  0.4972008862248152  1.0000
  H   H412      1.0  0.4046615709152421  0.8258063784546464  0.5485532487050133  1.0000
  C   C567      1.0  0.11585502497821872  0.5612487095062695  0.45536875856692355  1.0000
  C   C568      1.0  0.11826415578622212  0.5527881591085766  0.5048079168660673  1.0000
  H   H413      1.0  0.08827553575282565  0.5380760828389713  0.44413808650240943  1.0000
  H   H414      1.0  0.1386255651824115  0.5603660511930395  0.4366880367170387  1.0000
  H   H415      1.0  0.0911160861763867  0.547710285699441  0.51842273567928  1.0000
  H   H416      1.0  0.13985862293917856  0.5783206955477518  0.5183769495963146  1.0000
  C   C569      1.0  0.015448441756505839  0.7440474966820338  0.46957552602418895  1.0000
  C   C570      1.0  0.9858903129458626  0.718435466016511  0.5069958375449142  1.0000
  H   H417      1.0  0.030437192019630573  0.7738102309608267  0.4786379000168414  1.0000
  H   H418      1.0  0.9991741336939748  0.7464207853958199  0.44077935027344733  1.0000
  H   H419      1.0  0.9749070978892715  0.7356120378645246  0.5169510401553921  1.0000
  H   H420      1.0  0.0011810749448057294  0.7154694137777409  0.5363676097672209  1.0000
  C   C571      1.0  0.40525854843281145  0.8184809801266113  0.008095470033458067  1.0000
  C   C572      1.0  0.4361004759906979  0.8528685692315223  0.03014222118123455  1.0000
  H   H421      1.0  0.4028212317925015  0.7915439144620018  0.02219699490859296  1.0000
  H   H422      1.0  0.4117945713140058  0.8210392887228146  0.9729313699733535  1.0000
  H   H423      1.0  0.4241493264957779  0.8532095561737403  0.06293754964424442  1.0000
  H   H424      1.0  0.44116617554199417  0.8802271469163419  0.011890253293975729  1.0000
  C   C573      1.0  0.11304037125169962  0.5667520360634942  0.9469412270214915  1.0000
  C   C574      1.0  0.10686199114442113  0.5558448945631119  0.9969952270061708  1.0000
  H   H425      1.0  0.08687958846424061  0.5456769098178164  0.932826031730157  1.0000
  H   H426      1.0  0.13568673572946668  0.5611094536518428  0.9356026306185591  1.0000
  H   H427      1.0  0.07836411513868623  0.5506355793551319  0.0074129957625137435  1.0000
  H   H428      1.0  0.1279053105814904  0.5805337375972855  0.013080560633696333  1.0000
  C   C575      1.0  0.03694476229023702  0.7543764717580913  0.9919260535350011  1.0000
  C   C576      1.0  0.9977546382900001  0.7460824904667079  0.9726010560891031  1.0000
  H   H429      1.0  0.03222143840987385  0.7423359252603239  0.027610283497592678  1.0000
  H   H430      1.0  0.054137904067580365  0.7855361216346686  0.9945554828710143  1.0000
  H   H431      1.0  0.0032602632580230346  0.7611899272302867  0.9389188511990533  1.0000
  H   H432      1.0  0.9880298382665738  0.7614228072694562  0.9910822814346387  1.0000
  C   C577      1.0  0.186191060561368  0.7601837275341702  0.7223212448622144  1.0000
  C   C578      1.0  0.20623454660959556  0.8027149086068192  0.7059363680295948  1.0000
  H   H433      1.0  0.20583641615066897  0.7498529291737942  0.716833455775361  1.0000
  H   H434      1.0  0.16027286938842564  0.7441497718784087  0.7028556187329226  1.0000
  H   H435      1.0  0.23164069655908862  0.8161960227491366  0.7260102949754269  1.0000
  H   H436      1.0  0.18751573747869021  0.8151986558556942  0.7112508240880792  1.0000
  C   C579      1.0  0.19546872338026233  0.7836374829715462  0.21165925024557034  1.0000
  C   C580      1.0  0.18008464194122048  0.7402686287775507  0.2252531382779988  1.0000
  H   H437      1.0  0.2138353769645589  0.7992698032444951  0.23703357038154754  1.0000
  H   H438      1.0  0.17103008661301497  0.7885887961921353  0.20926529219337922  1.0000
  H   H439      1.0  0.15548030159037043  0.7240141872415956  0.202862762577567  1.0000
  H   H440      1.0  0.20206968800997147  0.7334303406284407  0.21844801817554077  1.0000
  C   C581      1.0  0.5811835211481542  0.40673471483577106  0.6115908736448822  1.0000
  C   C582      1.0  0.6164885558997434  0.4180491024595748  0.5814897945296266  1.0000
  H   H441      1.0  0.5765654005288546  0.43074850951275595  0.6075747800819168  1.0000
  H   H442      1.0  0.5883003536351687  0.4044993769211083  0.6464569758230374  1.0000
  H   H443      1.0  0.6070969049564735  0.41565860803240595  0.5482621800347333  1.0000
  H   H444      1.0  0.6255499965213254  0.39706249683951633  0.5894500320966117  1.0000
  C   C583      1.0  0.5966482708501679  0.19217610107686037  0.5037908117373359  1.0000
  C   C584      1.0  0.5978263881267312  0.15772646331679388  0.489983037288769  1.0000
  H   H445      1.0  0.6225860695253832  0.21898480238833185  0.48824316613608365  1.0000
  H   H446      1.0  0.5990718179306468  0.19042227718832627  0.5392652147320315  1.0000
  H   H447      1.0  0.585849559782335  0.15386863195156758  0.45659844193799437  1.0000
  H   H448      1.0  0.5785710594297928  0.13214663125632717  0.5121533127475172  1.0000
  C   C585      1.0  0.32457260109137476  0.015745985604956658  0.4887042974002352  1.0000
  C   C586      1.0  0.31071681245884475  0.9867091530449442  0.4540900186783898  1.0000
  H   H449      1.0  0.33718906575204105  0.006571674249917114  0.5164277706357874  1.0000
  H   H450      1.0  0.2977956055632618  0.012543123145204005  0.5040262830211579  1.0000
  H   H451      1.0  0.33513743440115157  0.9958625064939527  0.4308666633114373  1.0000
  H   H452      1.0  0.2890235390148164  0.990800141470263  0.4349808699093286  1.0000
  C   C587      1.0  0.3080210029273476  0.3180575944465194  0.49131083369476575  1.0000
  C   C588      1.0  0.3278366477419243  0.30272420725273685  0.4661611924087688  1.0000
  H   H453      1.0  0.2862110423434996  0.29424945817152487  0.5146323020966441  1.0000
  H   H454      1.0  0.32796554265373606  0.3372315764852422  0.5138768317277148  1.0000
  H   H455      1.0  0.3441180418360221  0.3219689077756668  0.4363381002258031  1.0000
  H   H456      1.0  0.3042774569742681  0.2762558923634285  0.45364851002122336  1.0000
  C   C589      1.0  0.42790701725277364  0.21911863819450367  0.7869646531403698  1.0000
  C   C590      1.0  0.39173165917145963  0.1999286932287735  0.7582436973830713  1.0000
  H   H457      1.0  0.4327673134691186  0.24736377317427516  0.7923314361508147  1.0000
  H   H458      1.0  0.4555428175022486  0.22575298872111982  0.7716688309954274  1.0000
  H   H459      1.0  0.368163986468038  0.20182790679822807  0.7722542387704849  1.0000
  H   H460      1.0  0.38052922423529895  0.16900877683674695  0.7616776536054767  1.0000
  C   C591      1.0  0.40511957134496973  0.2280303067009861  0.25111998584930384  1.0000
  C   C592      1.0  0.43848751505721956  0.25035971986936145  0.28105394576173576  1.0000
  H   H461      1.0  0.3783385793981214  0.22726075850613003  0.26195853281756426  1.0000
  H   H462      1.0  0.39578972778735394  0.19701169358339207  0.25138783443465146  1.0000
  H   H463      1.0  0.4372369132582936  0.2749981520028804  0.2881707382718083  1.0000
  H   H464      1.0  0.4662943764340314  0.2598714734163359  0.2638517873481837  1.0000
  C   C593      1.0  0.6113390826003842  0.4470446682100595  0.09249050393771421  1.0000
  C   C594      1.0  0.5951578313956494  0.430332181080691  0.04940874325831677  1.0000
  H   H465      1.0  0.6155293712620258  0.4261132905138879  0.1149979611931576  1.0000
  H   H466      1.0  0.591150229518913  0.4516037894528814  0.11155386662380994  1.0000
  H   H467      1.0  0.6158245731692168  0.42516856277784276  0.03260855394885599  1.0000
  H   H468      1.0  0.5929350927307597  0.4509516762250521  0.025187153169683597  1.0000
  C   C595      1.0  0.608891440635021  0.1967998712442672  0.04064888445668572  1.0000
  C   C596      1.0  0.573231781245835  0.1628511325873742  0.023914856037109945  1.0000
  H   H469      1.0  0.6054821669239356  0.19574862085287156  0.07617234396884422  1.0000
  H   H470      1.0  0.6103799583136407  0.22315899486193239  0.02649898985533237  1.0000
  H   H471      1.0  0.5815181363267949  0.15738131014729892  0.9925572473930241  1.0000
  H   H472      1.0  0.5645102852483816  0.13595087209857326  0.04433956978714704  1.0000
  C   C597      1.0  0.30483971090905965  0.006363000783581763  0.982396007409202  1.0000
  C   C598      1.0  0.2983872267620696  0.9840623313072708  0.028938047199244425  1.0000
  H   H473      1.0  0.2771239943135536  0.0032794609346185055  0.9707499901635017  1.0000
  H   H474      1.0  0.3126478848536509  0.9929164584783396  0.9591268659592842  1.0000
  H   H475      1.0  0.2752457956625236  0.985126286426005  0.04663933932580934  1.0000
  H   H476      1.0  0.32488471256853785  0.9992825078252308  0.046849955307450196  1.0000
  C   C599      1.0  0.3210938765180023  0.34183286324235085  0.9951310793425794  1.0000
  C   C600      1.0  0.32606438667923243  0.31650076292012  0.9654126410635346  1.0000
  H   H477      1.0  0.34911223561466426  0.3630702404405658  0.008769800922503542  1.0000
  H   H478      1.0  0.30254065746185516  0.32318692207553323  0.023787505317776174  1.0000
  H   H479      1.0  0.33770435898684126  0.3348656078225991  0.934124394225676  1.0000
  H   H480      1.0  0.2962830282199991  0.29186966685622046  0.9598463615487405  1.0000
