data_image0
_chemical_formula_structural       C6H4C38H24C6H4C38H24C6H4C38H24C6H4C38H24C6H4C38H24C6H4C38H24C6H4C38H24C6H4C38H24C6H4C38H24C6H4C38H24C6H4C38H24C6H4C38H24C6H4C38H24C6H4C38H24C6H4C38H24C6H4C38H24C2H4C2H4C2H4C2H4C2H4C2H4C2H4C2H4C2H4C2H4C2H4C2H4C2H4C2H4C2H4C2H4C2H4C2H4C2H4C2H4C2H4C2H4C2H4C2H4C2H4C2H4C2H4C2H4C2H4C2H4C2H4C2H4C2H4C2H4C2H4C2H4C2H4C2H4C2H4C2H4C2H4C2H4C2H4C2H4C2H4C2H4C2H4C2H4C6H4C38H24C6H4C38H24C6H4C38H24C6H4C38H24C6H4C38H24C6H4C38H24C6H4C38H24C6H4C38H24C6H4C38H24C6H4C38H24C6H4C38H24C6H4C38H24C6H4C38H24C6H4C38H24C6H4C38H24C6H4C38H24C2H4C2H4C2H4C2H4C2H4C2H4C2H4C2H4C2H4C2H4C2H4C2H4C2H4C2H4C2H4C2H4C2H4C2H4C2H4C2H4C2H4C2H4C2H4C2H4C2H4C2H4C2H4C2H4C2H4C2H4C2H4C2H4C2H4C2H4C2H4C2H4C2H4C2H4C2H4C2H4C2H4C2H4C2H4C2H4C2H4C2H4C2H4C2H4
_chemical_formula_sum              "C1600 H1280"
_cell_length_a       53.168295542434954
_cell_length_b       54.25702588651292
_cell_length_c       41.90109513522393
_cell_angle_alpha    90.82780000060549
_cell_angle_beta     91.53090000025827
_cell_angle_gamma    89.46720000062008

_space_group_name_H-M_alt    "P 1"
_space_group_IT_number       1

loop_
  _space_group_symop_operation_xyz
  'x, y, z'

loop_
  _atom_site_type_symbol
  _atom_site_label
  _atom_site_symmetry_multiplicity
  _atom_site_fract_x
  _atom_site_fract_y
  _atom_site_fract_z
  _atom_site_occupancy
  C   C1        1.0  0.9675645773287747  0.11125971453764087  0.08262564290399425  1.0000
  C   C2        1.0  0.956887917276927  0.0974956208354469  0.1057585403088741  1.0000
  C   C3        1.0  0.9320094356040941  0.10039425985186481  0.11247265575528193  1.0000
  C   C4        1.0  0.9174224247201325  0.1187799977177188  0.0976524158634422  1.0000
  C   C5        1.0  0.9279029726335841  0.1297386843555411  0.0715337427239489  1.0000
  C   C6        1.0  0.952843549125886  0.12711912486946417  0.06539338330235325  1.0000
  H   H1        1.0  0.9670801841523383  0.08448074512909685  0.11972901004161834  1.0000
  H   H2        1.0  0.9233429070083736  0.08828562151601065  0.12882577691191321  1.0000
  H   H3        1.0  0.9164955500221085  0.14113418326430457  0.055397182830116055  1.0000
  H   H4        1.0  0.9615306011390174  0.13782811892188246  0.047061603728069716  1.0000
  C   C7        1.0  0.8890231719636366  0.16943802379140097  0.09525734857884345  1.0000
  C   C8        1.0  0.8767996844767406  0.14716804039568068  0.0906675391468983  1.0000
  C   C9        1.0  0.8540025103025706  0.14691442094180598  0.07386004524152896  1.0000
  C   C10       1.0  0.8446644191336654  0.16780390240986207  0.05961093494242777  1.0000
  C   C11       1.0  0.8569180276699585  0.18959218204442674  0.06380630203022407  1.0000
  C   C12       1.0  0.8795275890730232  0.19073896904911072  0.08148529385093438  1.0000
  C   C13       1.0  0.8891403508592476  0.12356591807307955  0.10775128595310313  1.0000
  C   C14       1.0  0.8875930978393564  0.1304771023824418  0.14555805935335586  1.0000
  C   C15       1.0  0.8638739990813955  0.1350068110724661  0.1579584002391734  1.0000
  C   C16       1.0  0.861961409713006  0.14115789724319386  0.1899516856277214  1.0000
  C   C17       1.0  0.8825397594797997  0.14306374017440832  0.2095842653781084  1.0000
  C   C18       1.0  0.9057721393666266  0.1406066199612828  0.1964404054489013  1.0000
  C   C19       1.0  0.9086924911285618  0.13412935705109724  0.1654444479486764  1.0000
  C   C20       1.0  0.8767834078068202  0.0901767654417636  0.06617343362822146  1.0000
  C   C21       1.0  0.8648921387108377  0.06960952029773027  0.055350623352447156  1.0000
  C   C22       1.0  0.8509232055655817  0.0556415688527894  0.07602923936779551  1.0000
  C   C23       1.0  0.8491119609962066  0.06393590392107787  0.10763811060738487  1.0000
  C   C24       1.0  0.8622764558216439  0.08431283161598174  0.11774557629292311  1.0000
  C   C25       1.0  0.8755124579139479  0.09860228254390313  0.09723982726133008  1.0000
  C   C26       1.0  0.833438564494682  0.03463246520818994  0.0616215880780679  1.0000
  C   C27       1.0  0.7750196072533043  0.08891150023941992  0.036295619891706675  1.0000
  C   C28       1.0  0.7917224893860545  0.08067986135724153  0.013883033421347557  1.0000
  C   C29       1.0  0.8091412759894488  0.06284918113395752  0.02087853524946205  1.0000
  C   C30       1.0  0.8100449602653372  0.05146789783854865  0.05036231254496664  1.0000
  C   C31       1.0  0.7916964061431615  0.05857379256807185  0.07209102385666284  1.0000
  C   C32       1.0  0.774710655483806  0.07697862242312535  0.06519687842993527  1.0000
  C   C33       1.0  0.8247910620800791  0.013193190031673666  0.08405275058618414  1.0000
  C   C34       1.0  0.8381691817279218  0.007086649255987654  0.11139772873751065  1.0000
  C   C35       1.0  0.8284324243582232  0.4903601261337211  0.13215967427955874  1.0000
  C   C36       1.0  0.8065845629929811  0.4779949129269674  0.12380523261989268  1.0000
  C   C37       1.0  0.7955530653872711  0.48150277962307414  0.0939185845209484  1.0000
  C   C38       1.0  0.8037115376763868  0.4996350123091003  0.07484901630052687  1.0000
  C   C39       1.0  0.8359542938181463  0.009262246355607634  0.00896711663247838  1.0000
  C   C40       1.0  0.8487594152810283  0.493699296266395  0.9886081338386432  1.0000
  C   C41       1.0  0.8735108128124144  0.4877685053144508  0.9953345493243343  1.0000
  C   C42       1.0  0.8852107083480273  0.4952216128774319  0.023434817710071273  1.0000
  C   C43       1.0  0.8722186061428204  0.01036064456687049  0.04377569843740597  1.0000
  C   C44       1.0  0.8476186474869856  0.01840612885277367  0.03593364979864998  1.0000
  H   H5        1.0  0.9058265382135445  0.17072786754236147  0.11004798141821681  1.0000
  H   H6        1.0  0.8426955038457185  0.12999169993878698  0.07072241397974928  1.0000
  H   H7        1.0  0.8273355307332567  0.16599430289425898  0.04517463166644236  1.0000
  H   H8        1.0  0.8889216626709235  0.2083386178365832  0.08545741421247209  1.0000
  H   H9        1.0  0.8474704725356556  0.13315526231933014  0.14252047127692624  1.0000
  H   H10       1.0  0.8432137502187121  0.14407063025390243  0.19860649560998994  1.0000
  H   H11       1.0  0.9230164844695258  0.1440313624527213  0.2100011517781592  1.0000
  H   H12       1.0  0.927429410391768  0.13327712443871614  0.15586823784166795  1.0000
  H   H13       1.0  0.8865244215925137  0.10089401341672702  0.04832539508859022  1.0000
  H   H14       1.0  0.8650177289287491  0.06546756368146217  0.02970160402102941  1.0000
  H   H15       1.0  0.8379584408456457  0.05488993811767973  0.12445228997621434  1.0000
  H   H16       1.0  0.8616248732978073  0.08878954329996191  0.14312908721835205  1.0000
  H   H17       1.0  0.7919196297847209  0.09000082529698704  0.9907323479083325  1.0000
  H   H18       1.0  0.8227435423577972  0.05949895238615102  0.0025826661646216023  1.0000
  H   H19       1.0  0.7924566554067828  0.051159569866229444  0.09601423854915328  1.0000
  H   H20       1.0  0.7623537077819285  0.08333010398847135  0.08431969159148585  1.0000
  H   H21       1.0  0.854954959570152  0.016144933982458382  0.11938518620652491  1.0000
  H   H22       1.0  0.8370576851247905  0.48782352868302875  0.15548453999236575  1.0000
  H   H23       1.0  0.7791839138436527  0.47110060703271733  0.08590725039671933  1.0000
  H   H24       1.0  0.7944050859650292  0.0031616144384526553  0.05240114013376025  1.0000
  H   H25       1.0  0.8167120792925083  0.013104945632471051  0.0024129270226994357  1.0000
  H   H26       1.0  0.8393253389919813  0.4870225959279732  0.9670236375244444  1.0000
  H   H27       1.0  0.9047462026873277  0.4912452618820755  0.029000346657370103  1.0000
  H   H28       1.0  0.8815015315185095  0.01608592100510219  0.06507749515386116  1.0000
  C   C45       1.0  0.6430577447538997  0.1410759150228401  0.8178804983905831  1.0000
  C   C46       1.0  0.6340081394203012  0.15945791595374054  0.8368385626311515  1.0000
  C   C47       1.0  0.6309507719313127  0.15649432722381784  0.8685061704425692  1.0000
  C   C48       1.0  0.6380374827804658  0.13458682137617117  0.8831879257341632  1.0000
  C   C49       1.0  0.6495324700293403  0.11642216590455699  0.8636281697821813  1.0000
  C   C50       1.0  0.6503084643691855  0.11928115156173082  0.8313803592490433  1.0000
  H   H29       1.0  0.6302289723834581  0.17741907262624912  0.8283790636885402  1.0000
  H   H30       1.0  0.624608686612418  0.17154017747809605  0.8824358110948962  1.0000
  H   H31       1.0  0.657680258179812  0.09930557544578479  0.8724434308874933  1.0000
  H   H32       1.0  0.6572943371971017  0.10439776429368472  0.816567282353768  1.0000
  C   C51       1.0  0.6298914452448958  0.08467108868446532  0.9227658694182512  1.0000
  C   C52       1.0  0.6426549577394255  0.10529378065552895  0.9337706198067625  1.0000
  C   C53       1.0  0.6591356991111954  0.10219908680127567  0.9599370462566854  1.0000
  C   C54       1.0  0.6632225621649408  0.07961569573399689  0.9728877440452047  1.0000
  C   C55       1.0  0.6510335831923099  0.059109784169494264  0.9605482886301848  1.0000
  C   C56       1.0  0.6337688354042922  0.061971862512660195  0.9358096861621082  1.0000
  C   C57       1.0  0.6358999193040118  0.13204204508068518  0.9209440806253604  1.0000
  C   C58       1.0  0.6067417731582647  0.1354258787132796  0.9311441877331321  1.0000
  C   C59       1.0  0.600922196290327  0.1343853767929969  0.9634445269077427  1.0000
  C   C60       1.0  0.5763578862169998  0.1322201211203873  0.9731503872525676  1.0000
  C   C61       1.0  0.5567772378352734  0.13201303556590097  0.9516446839005779  1.0000
  C   C62       1.0  0.5618472274054062  0.13318852396373726  0.9195353579676858  1.0000
  C   C63       1.0  0.5864867903942378  0.13445070823744631  0.9098700879367262  1.0000
  C   C64       1.0  0.680677232923618  0.15096482120046822  0.921194785505116  1.0000
  C   C65       1.0  0.6972972807208702  0.16892629693917643  0.928092751196678  1.0000
  C   C66       1.0  0.6915073921743575  0.1883304977865626  0.9485956350296452  1.0000
  C   C67       1.0  0.6671374096372331  0.18860327915313205  0.9606796102338665  1.0000
  C   C68       1.0  0.649770691174102  0.17134604643404294  0.9512411684274473  1.0000
  C   C69       1.0  0.6560880883924343  0.15195974519853186  0.9316814124754657  1.0000
  C   C70       1.0  0.713166694509252  0.20812662645841368  0.9589366144031845  1.0000
  C   C71       1.0  0.7542723401634464  0.1565628612857796  0.021409193911611456  1.0000
  C   C72       1.0  0.7629294676275952  0.16101214084293286  0.991331031161189  1.0000
  C   C73       1.0  0.7495277312589048  0.17655170988457378  0.9717321139328073  1.0000
  C   C74       1.0  0.7295329575433498  0.1902994821064492  0.9821375602754265  1.0000
  C   C75       1.0  0.7215648387646864  0.18625164324032215  0.012812810104653613  1.0000
  C   C76       1.0  0.7340541442725877  0.16969984810490857  0.03254077709262384  1.0000
  C   C77       1.0  0.7052912175076779  0.23313339579735182  0.9756335593949093  1.0000
  C   C78       1.0  0.6820794143660662  0.24384084941655454  0.9698004925259283  1.0000
  C   C79       1.0  0.6738401699620498  0.2632993820642516  0.9879801778064934  1.0000
  C   C80       1.0  0.6905088341997159  0.27469936110637894  0.00962382015750683  1.0000
  C   C81       1.0  0.7148392521798728  0.26611207820322746  0.012816749752764058  1.0000
  C   C82       1.0  0.7218617936785706  0.2453244479924541  0.9966375461527174  1.0000
  C   C83       1.0  0.7518416502971969  0.22466007592569043  0.9307287339323942  1.0000
  C   C84       1.0  0.7646498083803314  0.23108687416972845  0.9043139902682372  1.0000
  C   C85       1.0  0.7529462234115438  0.2322365950677256  0.8750316603127801  1.0000
  C   C86       1.0  0.7271326503762601  0.22857446070534423  0.872698911098292  1.0000
  C   C87       1.0  0.714399548962525  0.22149306890572665  0.8992569146937379  1.0000
  C   C88       1.0  0.7271024974047073  0.21822325416609176  0.9283291300833048  1.0000
  H   H33       1.0  0.6154046735058556  0.08697267832778098  0.9037600518672533  1.0000
  H   H34       1.0  0.6678450386451431  0.1181619734217711  0.9728137264140386  1.0000
  H   H35       1.0  0.6764764111205391  0.07773078640435611  0.9932248319462078  1.0000
  H   H36       1.0  0.6229215463285186  0.046292881574778455  0.9271066453363058  1.0000
  H   H37       1.0  0.6159425874828318  0.13355992190020563  0.9815716835468353  1.0000
  H   H38       1.0  0.5733410659558671  0.13126071077815935  0.9991896478109985  1.0000
  H   H39       1.0  0.5464400826477511  0.1337222226933729  0.9015777255806185  1.0000
  H   H40       1.0  0.5899008809737178  0.13173522276471167  0.8848139259542923  1.0000
  H   H41       1.0  0.687102926636441  0.1361256204644994  0.9063267923028466  1.0000
  H   H42       1.0  0.7155294977637845  0.16655455621850768  0.918515824790013  1.0000
  H   H43       1.0  0.6607321885944241  0.20253349885231192  0.9783435597617913  1.0000
  H   H44       1.0  0.6312825599545588  0.1726648165475075  0.9616776544218458  1.0000
  H   H45       1.0  0.7785366769442216  0.15067363290232133  0.9814690139294115  1.0000
  H   H46       1.0  0.7561295068385179  0.1780211454937113  0.9479223133525873  1.0000
  H   H47       1.0  0.7046911876223855  0.19576506772154148  0.020456491491884863  1.0000
  H   H48       1.0  0.7265563041497365  0.1662708419943205  0.0560549846812844  1.0000
  H   H49       1.0  0.6694755037159271  0.2374168891406491  0.9500855383150502  1.0000
  H   H50       1.0  0.6547456241323911  0.2698605266730536  0.9845729791073382  1.0000
  H   H51       1.0  0.7276840405587367  0.27395236255510824  0.030585756563634253  1.0000
  H   H52       1.0  0.7403170872163679  0.23791489435981317  0.0008344246327889331  1.0000
  H   H53       1.0  0.7626040809111754  0.22380734191609386  0.9531417501825473  1.0000
  H   H54       1.0  0.7849695299463207  0.2341147785595189  0.9066300258240749  1.0000
  H   H55       1.0  0.7164632279323516  0.229180179610335  0.8499468463440885  1.0000
  H   H56       1.0  0.6944636209926093  0.22022224953877823  0.8964872226888186  1.0000
  C   C89       1.0  0.9085063876261107  0.3694033895306924  0.7999706193139455  1.0000
  C   C90       1.0  0.9208260877790214  0.3497727359723594  0.8138286300006279  1.0000
  C   C91       1.0  0.9231980332377189  0.3484865933295604  0.8461337445062815  1.0000
  C   C92       1.0  0.9143595627920349  0.3673991544554296  0.8656218704926189  1.0000
  C   C93       1.0  0.9005305066215323  0.3864633765447749  0.851374670325935  1.0000
  C   C94       1.0  0.8980198042846762  0.3876151565340977  0.8185824720538989  1.0000
  H   H57       1.0  0.9283146012545741  0.3346426944104067  0.8000876149244982  1.0000
  H   H58       1.0  0.9310110633088634  0.3319107255229645  0.8563553406037466  1.0000
  H   H59       1.0  0.8929172459530945  0.40097941242575014  0.8667751129394947  1.0000
  H   H60       1.0  0.8883716491851109  0.4031493299799877  0.8078284265451432  1.0000
  C   C95       1.0  0.9271052029064767  0.41121942778520343  0.9129430134628737  1.0000
  C   C96       1.0  0.9158877259670556  0.3901892002351982  0.923551411374819  1.0000
  C   C97       1.0  0.906317659166715  0.3913635419838763  0.9541636710257416  1.0000
  C   C98       1.0  0.9052680484599431  0.4131301220281307  0.9712044398525597  1.0000
  C   C99       1.0  0.9143767760493835  0.4342229627042776  0.9589103500824482  1.0000
  C   C100      1.0  0.925071159129686  0.4333900467837002  0.9296829364339851  1.0000
  C   C101      1.0  0.918352983010356  0.36519243305138616  0.903060465869459  1.0000
  C   C102      1.0  0.9464569625263766  0.35634098168415723  0.9124177270481476  1.0000
  C   C103      1.0  0.9515065426526277  0.3443837817266784  0.94059695553268  1.0000
  C   C104      1.0  0.9751860293704647  0.33994116852143397  0.9516351332384919  1.0000
  C   C105      1.0  0.9952924274237872  0.34904368024303467  0.9359266817726609  1.0000
  C   C106      1.0  0.9912220224292271  0.3610727372163103  0.9077450656226069  1.0000
  C   C107      1.0  0.9670133445375237  0.36494077669966274  0.8964155927231742  1.0000
  C   C108      1.0  0.8705160813924238  0.3560799750233848  0.9118112600056911  1.0000
  C   C109      1.0  0.8506341425503893  0.3416797501371294  0.9202492699586091  1.0000
  C   C110      1.0  0.8544383237946037  0.31753357674799726  0.9292531566401183  1.0000
  C   C111      1.0  0.8780308101524839  0.3076087210743474  0.9249338697117571  1.0000
  C   C112      1.0  0.89814854551859  0.3218875742542436  0.9158488024025175  1.0000
  C   C113      1.0  0.8953477212311094  0.34719991190176047  0.9111642026493694  1.0000
  C   C114      1.0  0.8313658203895592  0.30210116238838985  0.9427315285088851  1.0000
  C   C115      1.0  0.7863976123363243  0.34745271935554617  0.007792098676046582  1.0000
  C   C116      1.0  0.7754134237767389  0.32802533208418877  0.9916121310230331  1.0000
  C   C117      1.0  0.7894273917454897  0.31265189412564287  0.9728614797244683  1.0000
  C   C118      1.0  0.8143918246573444  0.3176040637804365  0.9677829151602758  1.0000
  C   C119      1.0  0.8256685613742609  0.33585653176586944  0.9860724330548292  1.0000
  C   C120      1.0  0.8118336261636706  0.3512933675200115  0.0052258357735575625  1.0000
  C   C121      1.0  0.8386143604758566  0.2791906099489703  0.9633967735973131  1.0000
  C   C122      1.0  0.8241006577054244  0.25809582199258374  0.9624035047403765  1.0000
  C   C123      1.0  0.8316609905302178  0.23814496570958193  0.9800053749647429  1.0000
  C   C124      1.0  0.8529278840901399  0.23866316781421934  0.9993172804714494  1.0000
  C   C125      1.0  0.8662646084122472  0.260323194473775  0.002103640769374245  1.0000
  C   C126      1.0  0.8588061960181395  0.28058870219254833  0.9851675078221873  1.0000
  C   C127      1.0  0.8283152047494203  0.2777221565882648  0.8894937503763974  1.0000
  C   C128      1.0  0.8147098957739821  0.2685913484350825  0.8639648306207103  1.0000
  C   C129      1.0  0.7904819017246776  0.2765882951120908  0.8578667328788447  1.0000
  C   C130      1.0  0.7813159823826711  0.2968097468404106  0.8741840390526537  1.0000
  C   C131      1.0  0.7957347203155268  0.306948977084139  0.8992282627074801  1.0000
  C   C132      1.0  0.8179520702061981  0.2953531050546074  0.9095978940672772  1.0000
  H   H61       1.0  0.9368705785276403  0.41048090309220303  0.8906422174922304  1.0000
  H   H62       1.0  0.8993134015338125  0.37487093053822973  0.9644139191094645  1.0000
  H   H63       1.0  0.8990031200248313  0.4132362421928621  0.9949579189649755  1.0000
  H   H64       1.0  0.9329619668633603  0.44946971673222746  0.9189217279286649  1.0000
  H   H65       1.0  0.9366720386919986  0.3388015624314467  0.9564606052574074  1.0000
  H   H66       1.0  0.9780914050049274  0.3303601229389123  0.9732888718528135  1.0000
  H   H67       1.0  0.0065908469329143534  0.3680516240848043  0.8948659977997324  1.0000
  H   H68       1.0  0.9652660888261843  0.37637204063395213  0.8755736603861564  1.0000
  H   H69       1.0  0.8664382816728845  0.37563156654351154  0.907215003876838  1.0000
  H   H70       1.0  0.8321925714512028  0.3504894562579156  0.9230523892808291  1.0000
  H   H71       1.0  0.882021696371333  0.2880463772779797  0.9275412004612156  1.0000
  H   H72       1.0  0.9160978704595159  0.3129784553201487  0.9107033832037235  1.0000
  H   H73       1.0  0.7554162231440366  0.3247516216871354  0.993605306447056  1.0000
  H   H74       1.0  0.7800927348806106  0.2969669747908888  0.9609613547654012  1.0000
  H   H75       1.0  0.8453433706770432  0.33967835691901777  0.9846469967385043  1.0000
  H   H76       1.0  0.8212018391165339  0.3662703277707964  0.019293961026130416  1.0000
  H   H77       1.0  0.8070052866026007  0.256668986573971  0.9486004103606881  1.0000
  H   H78       1.0  0.8205138184115052  0.22187468425115842  0.9801080445821667  1.0000
  H   H79       1.0  0.88275029427278  0.26140055150588404  0.0183255955205829  1.0000
  H   H80       1.0  0.868612828951279  0.2975833396200126  0.9894342661090759  1.0000
  H   H81       1.0  0.846097281488235  0.26819039340794926  0.8963129231057504  1.0000
  H   H82       1.0  0.8217524161435036  0.25278208270620384  0.8509783178493687  1.0000
  H   H83       1.0  0.7634171858967707  0.3045850580762055  0.8673720293198652  1.0000
  H   H84       1.0  0.7884547492218712  0.32310778650730365  0.910474167313661  1.0000
  C   C133      1.0  0.5427396045640566  0.37312174675928717  0.10790529037923872  1.0000
  C   C134      1.0  0.552527828043729  0.38233979090840825  0.13584264834644497  1.0000
  C   C135      1.0  0.5776280430037943  0.381374079942242  0.14240705716465585  1.0000
  C   C136      1.0  0.5947542328841288  0.37090563784112124  0.12095746395242091  1.0000
  C   C137      1.0  0.5850623395042219  0.36259155437839174  0.09174962916123401  1.0000
  C   C138      1.0  0.5588807711460305  0.36252825729853794  0.08597768652960305  1.0000
  H   H85       1.0  0.5402849228673611  0.3910936134621982  0.15271031142295566  1.0000
  H   H86       1.0  0.5832415911171042  0.38911428715220636  0.16533652546710542  1.0000
  H   H87       1.0  0.5966323168408657  0.35528320138918745  0.07340877645796884  1.0000
  H   H88       1.0  0.5509427725513613  0.35509068802593224  0.06408947916107184  1.0000
  C   C139      1.0  0.6295356444441199  0.3255919235341859  0.11006445631031503  1.0000
  C   C140      1.0  0.640107935760223  0.34873486439350593  0.1134475395877031  1.0000
  C   C141      1.0  0.665179277116887  0.35102815791942227  0.10474449876190063  1.0000
  C   C142      1.0  0.6773527593435302  0.3319956763648992  0.0899519557901101  1.0000
  C   C143      1.0  0.6655831470388365  0.31012247240633906  0.08369340692520108  1.0000
  C   C144      1.0  0.6424761412034561  0.30628644555408246  0.09575708697248966  1.0000
  C   C145      1.0  0.6243134424331489  0.3715776653572647  0.12761427542631318  1.0000
  C   C146      1.0  0.6338303731971306  0.3685450897613272  0.16403357639203262  1.0000
  C   C147      1.0  0.6572661846636711  0.37847729276488074  0.17372893100856304  1.0000
  C   C148      1.0  0.6647427322081149  0.37949429160190995  0.2052881388053056  1.0000
  C   C149      1.0  0.6495677022663676  0.37022706112050086  0.22833006615381699  1.0000
  C   C150      1.0  0.6270895934819524  0.3594761587177007  0.2194443689156211  1.0000
  C   C151      1.0  0.6200406374853563  0.3568749012375145  0.18729110993713383  1.0000
  C   C152      1.0  0.6369435582391004  0.39796650759908925  0.07940754731414061  1.0000
  C   C153      1.0  0.6503825813163825  0.41686858188775805  0.06785411138879276  1.0000
  C   C154      1.0  0.6610904263895117  0.4341469189906189  0.08807453439056868  1.0000
  C   C155      1.0  0.6505155580763289  0.436318725802353  0.11804331818345194  1.0000
  C   C156      1.0  0.6352615181882005  0.41871661273859706  0.12964546248543804  1.0000
  C   C157      1.0  0.631590802601293  0.39719486776564594  0.1114003551695843  1.0000
  C   C158      1.0  0.6855946609904261  0.4491395375737254  0.07852745380292228  1.0000
  C   C159      1.0  0.7389413109686891  0.40068670263344797  0.027612635456284677  1.0000
  C   C160      1.0  0.7384018376625309  0.42606100119333  0.022359389282540495  1.0000
  C   C161      1.0  0.7220641942703071  0.440666686508398  0.03837145629608326  1.0000
  C   C162      1.0  0.7056573581503421  0.4317933674116847  0.06052517207060328  1.0000
  C   C163      1.0  0.708196208673973  0.4072721011199119  0.0675952884462641  1.0000
  C   C164      1.0  0.7235814149725172  0.39138734712104617  0.05007818034791027  1.0000
  C   C165      1.0  0.7036334737243609  0.4593396450613699  0.10643377211834927  1.0000
  C   C166      1.0  0.7108561344376242  0.44428320718620984  0.13217901437028276  1.0000
  C   C167      1.0  0.7306098347122638  0.45118634709052574  0.1520582399690389  1.0000
  C   C168      1.0  0.74522182633704  0.4709766309273706  0.1456974990198104  1.0000
  C   C169      1.0  0.7371344543871085  0.48660400786685754  0.12192900505311201  1.0000
  C   C170      1.0  0.7166364700246126  0.4807853277470261  0.10345659197961317  1.0000
  C   C171      1.0  0.6620480407231665  0.49151161493365925  0.0689194877444781  1.0000
  C   C172      1.0  0.651415216395925  0.008182033810191483  0.0484753404833393  1.0000
  C   C173      1.0  0.65057249081045  0.003793546866992976  0.015583290039195  1.0000
  C   C174      1.0  0.6594721601531576  0.48173413290376116  0.004254342426176903  1.0000
  C   C175      1.0  0.6700861205137262  0.46504460274611037  0.024448262340664377  1.0000
  C   C176      1.0  0.672800732894509  0.4699361005487828  0.05669607287380236  1.0000
  H   H89       1.0  0.6107451227843699  0.321788991360856  0.11892723195950464  1.0000
  H   H90       1.0  0.6750652520616314  0.36827859663847107  0.10914305618557506  1.0000
  H   H91       1.0  0.6967699664134012  0.33488117141195  0.08381995319783964  1.0000
  H   H92       1.0  0.6330533312756166  0.2890729050089584  0.09220209177755488  1.0000
  H   H93       1.0  0.6693859055068029  0.38761103626261817  0.15817925929991053  1.0000
  H   H94       1.0  0.6819723323425086  0.3889390626947428  0.2125540437537279  1.0000
  H   H95       1.0  0.6155574405125921  0.3525926851494347  0.23783058726379447  1.0000
  H   H96       1.0  0.6037410007057072  0.34693328087952713  0.17993041466750864  1.0000
  H   H97       1.0  0.6334861541805662  0.3826405268940199  0.06443855586031254  1.0000
  H   H98       1.0  0.6569004396143264  0.414427541970902  0.04392397246629001  1.0000
  H   H99       1.0  0.6570843030485256  0.4509938684945672  0.13417032741519885  1.0000
  H   H100      1.0  0.6295519808584354  0.41937446491003544  0.1540020384700775  1.0000
  H   H101      1.0  0.7510337683262721  0.43319682679915067  0.005135032853775596  1.0000
  H   H102      1.0  0.7231160121353012  0.46027857731468275  0.03490384965923473  1.0000
  H   H103      1.0  0.6978550269836805  0.3989617591991519  0.08696594128894453  1.0000
  H   H104      1.0  0.7248173574802511  0.3720486874972732  0.05459468844834591  1.0000
  H   H105      1.0  0.7031165254329453  0.42632783278757713  0.13408986308712492  1.0000
  H   H106      1.0  0.7366594635182044  0.4394886582719375  0.1711273306563561  1.0000
  H   H107      1.0  0.7465181787709458  0.003723696882026092  0.11736116214396448  1.0000
  H   H108      1.0  0.712291507591187  0.4930868576941603  0.08415422637084713  1.0000
  H   H109      1.0  0.6615335221784054  0.4949286488063303  0.09461817051874268  1.0000
  H   H110      1.0  0.6422106792146669  0.02445296915872119  0.05858734273336837  1.0000
  H   H111      1.0  0.6582527622904776  0.4768967502996905  0.9795039652052316  1.0000
  H   H112      1.0  0.6742365313587434  0.4475370383084215  0.014922981139229111  1.0000
  C   C177      1.0  0.9566110782081692  0.1391611207539122  0.43807215622289536  1.0000
  C   C178      1.0  0.9473215839666042  0.15049134622706495  0.41092439924364327  1.0000
  C   C179      1.0  0.9230347172299561  0.146871420382677  0.40045687359746546  1.0000
  C   C180      1.0  0.9072274119872905  0.13195521088006035  0.4175430080691918  1.0000
  C   C181      1.0  0.9156341140954899  0.12412829539662328  0.4473983777498046  1.0000
  C   C182      1.0  0.9400905395344312  0.127674902037032  0.4576677271576994  1.0000
  H   H113      1.0  0.9601669890277034  0.1594655586607628  0.39546665265756775  1.0000
  H   H114      1.0  0.9173068354442105  0.1542855749447977  0.3778552317711154  1.0000
  H   H115      1.0  0.9031741834691792  0.11504924107706574  0.46316174552262984  1.0000
  H   H116      1.0  0.9469083886497305  0.11842538996371102  0.4788630339918965  1.0000
  C   C183      1.0  0.8874467329760792  0.07877546209638274  0.41804680549422457  1.0000
  C   C184      1.0  0.8703966857725289  0.09730992894117203  0.41030121854253643  1.0000
  C   C185      1.0  0.8449051378962453  0.09204822554093316  0.41048268112216907  1.0000
  C   C186      1.0  0.8367923795531339  0.07023604872506566  0.4224114580674939  1.0000
  C   C187      1.0  0.8537519793837488  0.05310566924324666  0.4340871424675416  1.0000
  C   C188      1.0  0.8791013650573721  0.05709881442326598  0.43033373226777166  1.0000
  C   C189      1.0  0.8798172410215851  0.12476105051548587  0.4029090060880277  1.0000
  C   C190      1.0  0.8772541911377102  0.12400965223260135  0.36516478952443776  1.0000
  C   C191      1.0  0.8566636245761664  0.13412918267903987  0.3487639150573768  1.0000
  C   C192      1.0  0.8548445865008042  0.13367644089665887  0.3163871705860788  1.0000
  C   C193      1.0  0.873359559115727  0.12232594391077019  0.2993989304007333  1.0000
  C   C194      1.0  0.8932260841951497  0.11102506674179013  0.31473490604521315  1.0000
  C   C195      1.0  0.8948090199582468  0.11143356036995068  0.3473122144203157  1.0000
  C   C196      1.0  0.8527250370001731  0.14178478072604717  0.44788068618514404  1.0000
  C   C197      1.0  0.835882481606018  0.158223730702773  0.46030132222789427  1.0000
  C   C198      1.0  0.8319923029833258  0.1814239136370844  0.4470545539147113  1.0000
  C   C199      1.0  0.8465265132065141  0.18758693060430526  0.4214778808485944  1.0000
  C   C200      1.0  0.8618085891254943  0.1698095315763686  0.40776790542424385  1.0000
  C   C201      1.0  0.8641403517686647  0.14625014890776672  0.41963937839705306  1.0000
  C   C202      1.0  0.8100479071224959  0.200038930068059  0.4580831809584373  1.0000
  C   C203      1.0  0.7670579205822294  0.1649350341373615  0.5306061335079363  1.0000
  C   C204      1.0  0.7927222956955989  0.16642312335086276  0.5344311736733507  1.0000
  C   C205      1.0  0.8059554739592066  0.18078799494149025  0.514718607127994  1.0000
  C   C206      1.0  0.7945448879348731  0.1915285440271409  0.487952876632179  1.0000
  C   C207      1.0  0.7685427405386357  0.19372722415963248  0.4887742335715689  1.0000
  C   C208      1.0  0.7550820478461964  0.1801585694803884  0.5089380689004858  1.0000
  C   C209      1.0  0.7937796908124168  0.200883416861682  0.4263463308468965  1.0000
  C   C210      1.0  0.791959069601317  0.22155163226657265  0.40743363225123636  1.0000
  C   C211      1.0  0.7719974407240616  0.22351755107737717  0.38551725042955165  1.0000
  C   C212      1.0  0.7557203033180897  0.20434792712554378  0.38006859770952933  1.0000
  C   C213      1.0  0.7618148082549502  0.18201290450225752  0.39361621187841905  1.0000
  C   C214      1.0  0.7804740350939965  0.1805211287700164  0.4163300739842788  1.0000
  C   C215      1.0  0.8032043852501113  0.2448619232799411  0.4773397033891909  1.0000
  C   C216      1.0  0.809756302978562  0.2651389176262029  0.49519227849331293  1.0000
  C   C217      1.0  0.8333577143626921  0.26692698601856635  0.5089929852074797  1.0000
  C   C218      1.0  0.8505018007833327  0.24780028497638265  0.5047692048999778  1.0000
  C   C219      1.0  0.8439677669478796  0.2273945303864341  0.48610004818750885  1.0000
  C   C220      1.0  0.8199655473298484  0.2257720844616815  0.47227546481812727  1.0000
  H   H117      1.0  0.9072513520604488  0.08119338754647362  0.415632875652006  1.0000
  H   H118      1.0  0.8306965379972476  0.10535930730091035  0.40152177242004655  1.0000
  H   H119      1.0  0.8166833803765006  0.06729849989059214  0.42371273577670165  1.0000
  H   H120      1.0  0.8923128060188092  0.04323821022035188  0.4362623057576119  1.0000
  H   H121      1.0  0.84162329475303  0.14184802892525297  0.36182922079092716  1.0000
  H   H122      1.0  0.8378519252045015  0.14123034393434114  0.3051675303006342  1.0000
  H   H123      1.0  0.9077385189277098  0.1016108248172618  0.302185336064303  1.0000
  H   H124      1.0  0.9101749685897091  0.1015687241551041  0.35821429519140324  1.0000
  H   H125      1.0  0.8567944335767153  0.12484219905578307  0.4603108728899801  1.0000
  H   H126      1.0  0.8246840252871976  0.15114952281004573  0.4783711748944712  1.0000
  H   H127      1.0  0.8441042072118613  0.20586325985767212  0.4118579764625428  1.0000
  H   H128      1.0  0.8716611655941043  0.17442393115595997  0.3863935236759356  1.0000
  H   H129      1.0  0.803101641451223  0.15575746633539742  0.5520927355357541  1.0000
  H   H130      1.0  0.8260260895790067  0.18021397284777438  0.5178727132818719  1.0000
  H   H131      1.0  0.758652270623544  0.20471716988342736  0.4707163192325994  1.0000
  H   H132      1.0  0.7348876890255209  0.17940427563858694  0.5062758218440331  1.0000
  H   H133      1.0  0.8030310269336172  0.2377156194237339  0.4132690867857387  1.0000
  H   H134      1.0  0.7688546826713039  0.24123680023987365  0.3750162974660731  1.0000
  H   H135      1.0  0.7506399353418721  0.16522412167473713  0.39020423784822117  1.0000
  H   H136      1.0  0.7830310317664009  0.16274922934458128  0.42792935308763913  1.0000
  H   H137      1.0  0.7839960617698771  0.24374397372806142  0.46783679461369193  1.0000
  H   H138      1.0  0.7962503750942059  0.27969317982187625  0.49827953001258934  1.0000
  H   H139      1.0  0.8692632814664569  0.2496217265529721  0.5162347747341351  1.0000
  H   H140      1.0  0.8583178071073659  0.21271331188693496  0.48454567793302405  1.0000
  C   C221      1.0  0.6161625016062763  0.1465490564576682  0.7333619142611579  1.0000
  C   C222      1.0  0.6037757288519067  0.12546638328951437  0.7233384944019757  1.0000
  C   C223      1.0  0.5995433192763328  0.12086859666969293  0.691670886590558  1.0000
  C   C224      1.0  0.6076699010983873  0.13683016892499308  0.6685606720081322  1.0000
  C   C225      1.0  0.6219749817911959  0.15662740294169217  0.6793385941721026  1.0000
  C   C226      1.0  0.6256603607471235  0.16148528856057612  0.7109584486730908  1.0000
  H   H141      1.0  0.595713892700479  0.11371825292999947  0.7403458359114932  1.0000
  H   H142      1.0  0.5875392608773857  0.10617014586013278  0.6847466565782597  1.0000
  H   H143      1.0  0.6296803417655571  0.1699696665464849  0.6630021866741218  1.0000
  H   H144      1.0  0.6367402517702703  0.17760367716324565  0.7184008021035507  1.0000
  C   C227      1.0  0.5949064097415543  0.17846496727957367  0.6168318984852212  1.0000
  C   C228      1.0  0.6053644197136823  0.1554909042763318  0.6088308313227345  1.0000
  C   C229      1.0  0.6160782346336898  0.15332888848052995  0.5795699903569708  1.0000
  C   C230      1.0  0.6187363816990246  0.1729976902474319  0.5602322872984868  1.0000
  C   C231      1.0  0.608830968710365  0.1955338987377252  0.5686440329306685  1.0000
  C   C232      1.0  0.596145754329281  0.1979439704945384  0.5963051379970392  1.0000
  C   C233      1.0  0.6030244986588256  0.1321789008350541  0.6318144996325218  1.0000
  C   C234      1.0  0.5745722555397312  0.12543558938819666  0.6242575382570308  1.0000
  C   C235      1.0  0.5677122734862416  0.11205057026547528  0.5968447504048942  1.0000
  C   C236      1.0  0.5431153770740522  0.10678035608535183  0.58984650276143  1.0000
  C   C237      1.0  0.5243117802604106  0.11529857986621182  0.6089120119504651  1.0000
  C   C238      1.0  0.53013998949209  0.1295489129140078  0.6354127115733954  1.0000
  C   C239      1.0  0.554773366825813  0.1349281897371292  0.6424061838858167  1.0000
  C   C240      1.0  0.6493723157642299  0.11871900048399578  0.6248854942891806  1.0000
  C   C241      1.0  0.6674303064027416  0.10228624299536071  0.6162397574358938  1.0000
  C   C242      1.0  0.661207213708266  0.07814540854809769  0.6077969721519328  1.0000
  C   C243      1.0  0.637229998097498  0.07042682000520899  0.6132265235477833  1.0000
  C   C244      1.0  0.6192712082584572  0.08697110546828904  0.6228822429166571  1.0000
  C   C245      1.0  0.6242881718256311  0.11188840825067761  0.6266475914440345  1.0000
  C   C246      1.0  0.6820317310979854  0.06039933349065415  0.5938171905236548  1.0000
  C   C247      1.0  0.7334943425151892  0.10304559417223491  0.5379816323037947  1.0000
  C   C248      1.0  0.7422193684518005  0.08282900228888578  0.5535205595176005  1.0000
  C   C249      1.0  0.7255513397288367  0.06757549127831887  0.5685222619890729  1.0000
  C   C250      1.0  0.7005640319790346  0.07400684463262451  0.5712131610317833  1.0000
  C   C251      1.0  0.6919247149994671  0.09240474936334582  0.5507962331575894  1.0000
  C   C252      1.0  0.7082269453126658  0.10734136596750676  0.534982724408813  1.0000
  C   C253      1.0  0.6726928736642704  0.03907417620624127  0.5701530375402452  1.0000
  C   C254      1.0  0.6852208133525288  0.016651402026452867  0.5696850550980347  1.0000
  C   C255      1.0  0.6773689813794107  0.4975327837960931  0.5501085854874025  1.0000
  C   C256      1.0  0.6565203996860719  0.000651376269315589  0.5301787413795909  1.0000
  C   C257      1.0  0.645390751658628  0.023349606427525496  0.5284882741903816  1.0000
  C   C258      1.0  0.6532104959684065  0.042813041967221015  0.548036091814756  1.0000
  C   C259      1.0  0.6852451264366359  0.0310788237503435  0.6419286507815203  1.0000
  C   C260      1.0  0.6983447030321047  0.019995151146659233  0.6664857906699642  1.0000
  C   C261      1.0  0.7210155011383212  0.029907723755104396  0.6771777568751612  1.0000
  C   C262      1.0  0.7292013950321427  0.052026588855982395  0.6654662574922913  1.0000
  C   C263      1.0  0.7159652133909226  0.06304544499537061  0.6410022365591851  1.0000
  C   C264      1.0  0.694848366106919  0.051433221751812544  0.626972313954956  1.0000
  H   H145      1.0  0.5848449440898026  0.18095592036537783  0.6381871789093577  1.0000
  H   H146      1.0  0.6228822313229938  0.13616324636665306  0.5703655397716572  1.0000
  H   H147      1.0  0.629173381786363  0.16977497686743812  0.538874619208829  1.0000
  H   H148      1.0  0.5888474762167987  0.21646778375184708  0.6033702402751049  1.0000
  H   H149      1.0  0.5820093601166392  0.10487736091434026  0.581062281307897  1.0000
  H   H150      1.0  0.5383107603340602  0.09608241320526727  0.5686297069375396  1.0000
  H   H151      1.0  0.5159739216198034  0.13681372109634948  0.6512954626222948  1.0000
  H   H152      1.0  0.5583600201267575  0.1457828427371713  0.6633746624954729  1.0000
  H   H153      1.0  0.6551217560542297  0.13729744439808758  0.6290495829586455  1.0000
  H   H154      1.0  0.6870555363305887  0.10762266267596976  0.6153754225171172  1.0000
  H   H155      1.0  0.6326599229156953  0.05149302003772822  0.6106932104294908  1.0000
  H   H156      1.0  0.6011409838235592  0.08014945154812528  0.627442684062688  1.0000
  H   H157      1.0  0.7624891268789669  0.07930277425912742  0.5535468238383368  1.0000
  H   H158      1.0  0.7326723402363644  0.05191985802871211  0.5822011977616441  1.0000
  H   H159      1.0  0.6723646125410381  0.09763304641611244  0.5504929996363611  1.0000
  H   H160      1.0  0.7004115494060992  0.1235066951764866  0.5228557712252052  1.0000
  H   H161      1.0  0.7013266609017571  0.013999211724127996  0.5855701938124555  1.0000
  H   H162      1.0  0.686464607363075  0.47948546748943066  0.551502982151948  1.0000
  H   H163      1.0  0.6294881399886181  0.025908275867988616  0.5120300957508052  1.0000
  H   H164      1.0  0.6440880634298363  0.06064362645745798  0.545956435145545  1.0000
  H   H165      1.0  0.6691842614418234  0.02158024079047604  0.6321726494607441  1.0000
  H   H166      1.0  0.6917383620609729  0.0029670043208361884  0.6760985320594513  1.0000
  H   H167      1.0  0.7467012192863391  0.05901482623762169  0.6743650868908553  1.0000
  H   H168      1.0  0.7235891403289659  0.0798662772596899  0.63192433224651  1.0000
  C   C265      1.0  0.5578296721545758  0.36256216197688784  0.43832763643369393  1.0000
  C   C266      1.0  0.5678859481434454  0.3542978086774542  0.41046119213247567  1.0000
  C   C267      1.0  0.5918267636063939  0.36134619707534626  0.4029113937535492  1.0000
  C   C268      1.0  0.6062342871783062  0.3770693965026729  0.4221679161843027  1.0000
  C   C269      1.0  0.5959321967984965  0.3839877163684799  0.45133086286368573  1.0000
  C   C270      1.0  0.5717862456596632  0.377074480806083  0.4589355775496064  1.0000
  H   H169      1.0  0.5576316223843351  0.34218391575370233  0.3940985203137585  1.0000
  H   H170      1.0  0.6003242901046381  0.35345500741727326  0.3818450208575121  1.0000
  H   H171      1.0  0.6055313213600731  0.39548525171931703  0.46863427489786696  1.0000
  H   H172      1.0  0.5639518594564304  0.3845495878485135  0.48004492842503016  1.0000
  C   C271      1.0  0.6290536696099428  0.42921730887541965  0.4286695293992986  1.0000
  C   C272      1.0  0.6437319370233342  0.4081598068633168  0.4310762962449527  1.0000
  C   C273      1.0  0.666366510879553  0.4100340306188454  0.44785919719545075  1.0000
  C   C274      1.0  0.6740253417104944  0.43124561309484105  0.4626961507459408  1.0000
  C   C275      1.0  0.6582331213354241  0.4514600611743417  0.4627439040563705  1.0000
  C   C276      1.0  0.6359274735642646  0.4509747769052002  0.444879390624641  1.0000
  C   C277      1.0  0.6342953957225098  0.38292962814898657  0.41468019710893467  1.0000
  C   C278      1.0  0.6389040723812536  0.38898435303685297  0.3778671700987228  1.0000
  C   C279      1.0  0.6632576154679752  0.3870317956165424  0.3662105870228469  1.0000
  C   C280      1.0  0.6681756360493896  0.39070048354251197  0.33434957830418904  1.0000
  C   C281      1.0  0.6491508170621454  0.39788103575663747  0.31380849182287807  1.0000
  C   C282      1.0  0.6257411747087284  0.40295575298376607  0.3257874097441541  1.0000
  C   C283      1.0  0.6208153957176824  0.39929411786730934  0.3572831056380252  1.0000
  C   C284      1.0  0.6488013050908934  0.3541705739717996  0.4618867321341584  1.0000
  C   C285      1.0  0.6601223222427902  0.33297131166910343  0.47405666329715285  1.0000
  C   C286      1.0  0.6712936584420043  0.3155189981379087  0.45427485445167326  1.0000
  C   C287      1.0  0.6716786037507668  0.3206907920069437  0.4218264800147307  1.0000
  C   C288      1.0  0.6590835730823479  0.34102871274226443  0.40977115679676734  1.0000
  C   C289      1.0  0.6484306969776373  0.358655439973752  0.4291542255001595  1.0000
  C   C290      1.0  0.6852687560801746  0.29246646244659974  0.4682116581005646  1.0000
  C   C291      1.0  0.7500559801109519  0.3355018947700344  0.500941777069042  1.0000
  C   C292      1.0  0.7329971127699092  0.3280361887882432  0.5230443968014022  1.0000
  C   C293      1.0  0.7125943592545796  0.3143934971197058  0.5131618492079877  1.0000
  C   C294      1.0  0.7099972488856021  0.30606533640130495  0.4819980388216026  1.0000
  C   C295      1.0  0.7276524387157609  0.31324532189559834  0.4603968288487535  1.0000
  C   C296      1.0  0.7477573702852429  0.32722235753247486  0.4695057728132079  1.0000
  C   C297      1.0  0.6907231138640475  0.2696890540274613  0.4445451174516335  1.0000
  C   C298      1.0  0.6732768389822488  0.2622748833829627  0.42075680586110675  1.0000
  C   C299      1.0  0.6789770074441862  0.2432813999757587  0.4001082744313291  1.0000
  C   C300      1.0  0.7004819150837469  0.2295110341397356  0.405139085685092  1.0000
  C   C301      1.0  0.7167730604293712  0.23573135212499435  0.42998274543611387  1.0000
  C   C302      1.0  0.7124569075509284  0.2560752510124746  0.44872591977974874  1.0000
  C   C303      1.0  0.6814223872056365  0.2659585525517154  0.5181663961410142  1.0000
  C   C304      1.0  0.6676490180765773  0.2547775991915893  0.5409924785263837  1.0000
  C   C305      1.0  0.6418550415282366  0.25517620121136736  0.5391874033921431  1.0000
  C   C306      1.0  0.6294886126585274  0.2672234214740645  0.514510880227625  1.0000
  C   C307      1.0  0.6437074986897109  0.27867492177969116  0.4921527802844662  1.0000
  C   C308      1.0  0.6693840756029288  0.2792454183352692  0.4940891770223882  1.0000
  H   H173      1.0  0.6114850096436253  0.42801774406615545  0.4164303559361811  1.0000
  H   H174      1.0  0.6798794032108002  0.3950301293356561  0.44713334687692013  1.0000
  H   H175      1.0  0.6920224491655363  0.4311565853679516  0.475587156896423  1.0000
  H   H176      1.0  0.6233910733097827  0.46698922393152  0.44312923179739455  1.0000
  H   H177      1.0  0.6781994063945942  0.3804819393836045  0.38258042183812857  1.0000
  H   H178      1.0  0.6869464554397272  0.3884599623002973  0.32584710138219114  1.0000
  H   H179      1.0  0.6109117146482568  0.40914940918024706  0.31021505521304743  1.0000
  H   H180      1.0  0.6021826274976269  0.4037686899362434  0.3664708425646885  1.0000
  H   H181      1.0  0.6415378136576764  0.3680734607123058  0.4770078178817049  1.0000
  H   H182      1.0  0.6615683188891255  0.3313240331448875  0.49965005002192014  1.0000
  H   H183      1.0  0.6811408707432091  0.3094567760206113  0.4045182926495066  1.0000
  H   H184      1.0  0.6593129124787674  0.34220155035969446  0.38394139118537346  1.0000
  H   H185      1.0  0.7347106931661268  0.33497485622194706  0.5471717568959794  1.0000
  H   H186      1.0  0.6993265371692655  0.31129602636563847  0.5313940631300254  1.0000
  H   H187      1.0  0.726211816774876  0.307068365372737  0.4356415127220265  1.0000
  H   H188      1.0  0.7605186880123929  0.33263052121744613  0.45121625491865464  1.0000
  H   H189      1.0  0.6555933404621568  0.2722939924491386  0.41669538680906565  1.0000
  H   H190      1.0  0.6668539333077242  0.24003687206252025  0.379383337704864  1.0000
  H   H191      1.0  0.7342205643425302  0.22635481351798423  0.43330876350753844  1.0000
  H   H192      1.0  0.7258045814441028  0.2613378995459409  0.467421340812954  1.0000
  H   H193      1.0  0.7017717000927753  0.26423317067292135  0.5211748546980818  1.0000
  H   H194      1.0  0.6771969689110061  0.24542278702928838  0.5592414061070717  1.0000
  H   H195      1.0  0.6090105477389856  0.2659039673883483  0.5113400604150967  1.0000
  H   H196      1.0  0.6336990495961734  0.2872687589344033  0.47241394941837317  1.0000
  C   C309      1.0  0.8801968891958559  0.36917883809580165  0.7122645017133415  1.0000
  C   C310      1.0  0.8835726344736073  0.3929051415236541  0.7019497866605386  1.0000
  C   C311      1.0  0.8847797735558632  0.3972821523562237  0.670138918917832  1.0000
  C   C312      1.0  0.8812682180057982  0.3786610150417077  0.6464676029378578  1.0000
  C   C313      1.0  0.8751277611967347  0.3556175136548214  0.6573625207123809  1.0000
  C   C314      1.0  0.8753435614258647  0.35083487226604454  0.6896652475525129  1.0000
  H   H197      1.0  0.8867277057058462  0.40807694552984536  0.7186586699798707  1.0000
  H   H198      1.0  0.8890888698136236  0.41543349567638393  0.6634080898127737  1.0000
  H   H199      1.0  0.8706319260491987  0.3413363425703872  0.6403527915373419  1.0000
  H   H200      1.0  0.8709947988783315  0.3322791692098499  0.6954911514249293  1.0000
  C   C315      1.0  0.8900623783016733  0.34399446625909086  0.5808808187282645  1.0000
  C   C316      1.0  0.8749630463658331  0.3650732493614881  0.5839441935923262  1.0000
  C   C317      1.0  0.8533456187284773  0.3665018906771775  0.5649694156931074  1.0000
  C   C318      1.0  0.8490904854695923  0.34884621798798104  0.5414341966478579  1.0000
  C   C319      1.0  0.863601683061233  0.3282341113526868  0.5394118439511625  1.0000
  C   C320      1.0  0.8843280196917456  0.32543342290622357  0.5596640229043741  1.0000
  C   C321      1.0  0.8831971411240496  0.3863277549744044  0.6094181970410192  1.0000
  C   C322      1.0  0.9129171382131108  0.3924669376586193  0.6023244427766957  1.0000
  C   C323      1.0  0.9207010193252466  0.3946151924412595  0.570647284303192  1.0000
  C   C324      1.0  0.9452862577875469  0.3999650589155199  0.564353397988565  1.0000
  C   C325      1.0  0.9636402524490468  0.40054157643682564  0.5886884849835111  1.0000
  C   C326      1.0  0.9565383892657461  0.39847299547756454  0.6195633878417969  1.0000
  C   C327      1.0  0.9318450376242416  0.39461538641959265  0.6261294680258729  1.0000
  C   C328      1.0  0.8430521909883307  0.4128765290958052  0.6198308063802029  1.0000
  C   C329      1.0  0.8261587317632043  0.43127494455200066  0.6129400036852054  1.0000
  C   C330      1.0  0.8294175641765853  0.44714548340840865  0.5878145994026487  1.0000
  C   C331      1.0  0.851833114866813  0.44478975099055834  0.5718315664018472  1.0000
  C   C332      1.0  0.8692572129754269  0.4271797998673386  0.5793574881255589  1.0000
  C   C333      1.0  0.8653062727359498  0.4101621128743789  0.6030741697504411  1.0000
  C   C334      1.0  0.8061333623107845  0.4637605240872577  0.5734336899667617  1.0000
  C   C335      1.0  0.7744626486537955  0.4014765959094473  0.5183144314033461  1.0000
  C   C336      1.0  0.7675528445122473  0.40561435013816116  0.5492275369099756  1.0000
  C   C337      1.0  0.7759032608543437  0.42612958701046727  0.56577883430489  1.0000
  C   C338      1.0  0.7926748894548702  0.4426490097514741  0.5524270087087617  1.0000
  C   C339      1.0  0.7998833081624699  0.4373657794508885  0.5216022468264271  1.0000
  C   C340      1.0  0.7905522111349527  0.4173459745277154  0.5043442004371541  1.0000
  C   C341      1.0  0.8131190078763221  0.4873907660200841  0.5516701187384518  1.0000
  C   C342      1.0  0.8346685953045356  0.0004975166026420232  0.5579234147392136  1.0000
  C   C343      1.0  0.8421499214111767  0.018347174884501247  0.5374444075614612  1.0000
  C   C344      1.0  0.8272869333375523  0.025172457539321746  0.5120778490612348  1.0000
  C   C345      1.0  0.8041687906426944  0.014438566777549343  0.5079973286850218  1.0000
  C   C346      1.0  0.7970435475585519  0.4954920765750046  0.527356520733199  1.0000
  C   C347      1.0  0.7644942300289725  0.4796692178027392  0.5975037460888233  1.0000
  C   C348      1.0  0.750821757809642  0.4864301013364764  0.6237394148388692  1.0000
  C   C349      1.0  0.7622389457278349  0.4906836481794103  0.6531100884186212  1.0000
  C   C350      1.0  0.7882834468318262  0.49111866740960386  0.655130053449795  1.0000
  C   C351      1.0  0.8022738972624338  0.4851233700112556  0.6286198031647787  1.0000
  C   C352      1.0  0.7903384847340704  0.47668245030869544  0.6006196495943575  1.0000
  H   H201      1.0  0.9080577664828902  0.34219063019189516  0.5935426089886844  1.0000
  H   H202      1.0  0.8389871485182914  0.38047673512027597  0.5673236538972888  1.0000
  H   H203      1.0  0.8332561371951663  0.3507515548964247  0.5254225116607986  1.0000
  H   H204      1.0  0.8976919159044139  0.3106379687252572  0.5566006480403124  1.0000
  H   H205      1.0  0.9073260918175414  0.3924106840713832  0.5511424446582043  1.0000
  H   H206      1.0  0.95103873786177  0.40108195935853264  0.5399777206797537  1.0000
  H   H207      1.0  0.9706319023328356  0.3985188654347058  0.6383686414889903  1.0000
  H   H208      1.0  0.9285004542329103  0.39071857864632437  0.6509707401113731  1.0000
  H   H209      1.0  0.8372150628970589  0.39948328641013664  0.637064976114261  1.0000
  H   H210      1.0  0.8087201519031962  0.43165169084456717  0.6252770714347037  1.0000
  H   H211      1.0  0.8548209538781073  0.4546367454259376  0.5500584445114514  1.0000
  H   H212      1.0  0.8858426065845679  0.42639943631638766  0.5651747549279549  1.0000
  H   H213      1.0  0.7543489920380247  0.39378077887113144  0.5597714678528407  1.0000
  H   H214      1.0  0.7711353911300023  0.4280587849805105  0.5907681416527221  1.0000
  H   H215      1.0  0.8134047172428912  0.4487560228040624  0.5101295139957054  1.0000
  H   H216      1.0  0.7947714130104413  0.4150191573346208  0.479736919572759  1.0000
  H   H217      1.0  0.8465352805183254  0.49565751277843867  0.5786388008035928  1.0000
  H   H218      1.0  0.8600791888036471  0.026640847850264555  0.5424943201393959  1.0000
  H   H219      1.0  0.7914423890997616  0.02001929190339795  0.48885780186482075  1.0000
  H   H220      1.0  0.7798281958328594  0.48620706918519135  0.5228939738735489  1.0000
  H   H221      1.0  0.7545628148323423  0.47601465851888836  0.575188624125051  1.0000
  H   H222      1.0  0.7307816332518652  0.4877000303355018  0.6217218374732167  1.0000
  H   H223      1.0  0.7981883879204767  0.4959152561064947  0.6773568317892724  1.0000
  H   H224      1.0  0.8226593585260448  0.48422930985839524  0.6311292396278565  1.0000
  C   C353      1.0  0.03638687225141597  0.13358147862990388  0.08304611080232727  1.0000
  C   C354      1.0  0.04719352427335926  0.14313734951065937  0.11125017100828306  1.0000
  C   C355      1.0  0.0725375687459229  0.14013241636343224  0.11753331282806334  1.0000
  C   C356      1.0  0.08694045619658888  0.1265152194018479  0.09654644919389166  1.0000
  C   C357      1.0  0.076371760207836  0.12006461041478696  0.0668044936255492  1.0000
  C   C358      1.0  0.0512565278595675  0.12256619901438745  0.06067463993224807  1.0000
  H   H225      1.0  0.034727294062843944  0.1521807701082585  0.1277179001099455  1.0000
  H   H226      1.0  0.07983408069353902  0.14748737742906728  0.1397713131954917  1.0000
  H   H227      1.0  0.08800689246112024  0.11229677585285057  0.04859973785700852  1.0000
  H   H228      1.0  0.043180429541951504  0.1144675416567132  0.039379528679253026  1.0000
  C   C359      1.0  0.11596817886614874  0.07673379920592137  0.0809743334293372  1.0000
  C   C360      1.0  0.12880946354039713  0.0986074526685254  0.08651753770401018  1.0000
  C   C361      1.0  0.1539206998027562  0.09898679038548001  0.07813205639256485  1.0000
  C   C362      1.0  0.16429650347875654  0.07900856288775483  0.06184173083914855  1.0000
  C   C363      1.0  0.15079513322873186  0.05813547635353261  0.056038748555738316  1.0000
  C   C364      1.0  0.12652722384499818  0.05737092105341757  0.06536568638230406  1.0000
  C   C365      1.0  0.11561696856954029  0.12081812128741781  0.10526238341351013  1.0000
  C   C366      1.0  0.12090252063221586  0.11053105478119173  0.14033695115753084  1.0000
  C   C367      1.0  0.14420004604617465  0.11339832898586716  0.15607381584306756  1.0000
  C   C368      1.0  0.14734815185931296  0.1103306700549797  0.18838633211183772  1.0000
  C   C369      1.0  0.12753815327761345  0.10260687756214791  0.20564437850111073  1.0000
  C   C370      1.0  0.10537271837242175  0.09704173755981002  0.1908456275989643  1.0000
  C   C371      1.0  0.10216427554848459  0.10107760752570408  0.1586675368990536  1.0000
  C   C372      1.0  0.13435515981531937  0.1519501989121759  0.06749763292643547  1.0000
  C   C373      1.0  0.15219662121821906  0.16935167637841333  0.062441273651592716  1.0000
  C   C374      1.0  0.16345244996175604  0.18233063144251824  0.08763401010185522  1.0000
  C   C375      1.0  0.15307683512479403  0.17943842388803768  0.11757509697468929  1.0000
  C   C376      1.0  0.13495821829654228  0.16313243099132355  0.12253929236040284  1.0000
  C   C377      1.0  0.12823318487590893  0.14655015309757732  0.09832621507360445  1.0000
  C   C378      1.0  0.18998447175108232  0.19570677696196517  0.08119423742386571  1.0000
  C   C379      1.0  0.23497977866686046  0.13363169400487004  0.04046352882600593  1.0000
  C   C380      1.0  0.23299902800951133  0.15607938511501132  0.024752450928101202  1.0000
  C   C381      1.0  0.21922474388745178  0.17545526031594688  0.03727718918758799  1.0000
  C   C382      1.0  0.20756104008745235  0.17373707486649773  0.0663042776987987  1.0000
  C   C383      1.0  0.21015977385479065  0.15150813840121324  0.08243295829641065  1.0000
  C   C384      1.0  0.22442068406321655  0.13205925035987262  0.07020858835952631  1.0000
  C   C385      1.0  0.20338289086517328  0.206026399254315  0.11378014139484555  1.0000
  C   C386      1.0  0.1918691436915104  0.22524007901838639  0.13131372438529762  1.0000
  C   C387      1.0  0.20396832659706832  0.2371464376836911  0.1561478334742335  1.0000
  C   C388      1.0  0.22824747121729722  0.23049684869745013  0.16510396684531306  1.0000
  C   C389      1.0  0.23934537312060064  0.21108233721341238  0.14925774707889244  1.0000
  C   C390      1.0  0.22718772500184775  0.19894065100318678  0.124309985111134  1.0000
  C   C391      1.0  0.2055401191797671  0.23347786039088292  0.052719177181221676  1.0000
  C   C392      1.0  0.20301465126579418  0.25443088794812346  0.035743352856587855  1.0000
  C   C393      1.0  0.17960933113481606  0.2624775205442508  0.026612681135887946  1.0000
  C   C394      1.0  0.15891062528460173  0.2483103900373678  0.03294381503265003  1.0000
  C   C395      1.0  0.16162715187986382  0.2277435055259568  0.05101223509991408  1.0000
  C   C396      1.0  0.18523755540040773  0.21884989358418575  0.05955028823818212  1.0000
  H   H229      1.0  0.09716760739206887  0.07439883588047731  0.08944075660196077  1.0000
  H   H230      1.0  0.16626701590008827  0.11413262319873548  0.0852286758555141  1.0000
  H   H231      1.0  0.18322414516484833  0.07968765466096367  0.054251342146356775  1.0000
  H   H232      1.0  0.11608414975896983  0.040797604441945884  0.06185295286709951  1.0000
  H   H233      1.0  0.1602668536271085  0.1193756929365513  0.1435858476326116  1.0000
  H   H234      1.0  0.16505836268401933  0.11581869169651476  0.20045550378982568  1.0000
  H   H235      1.0  0.08974687946080823  0.09091053672833341  0.20460025236856658  1.0000
  H   H236      1.0  0.08441906516660169  0.09758779850613346  0.14798058479145165  1.0000
  H   H237      1.0  0.1277030987342473  0.14064054331211914  0.04794766640309174  1.0000
  H   H238      1.0  0.15891030774359033  0.17149998697524058  0.037945974300155144  1.0000
  H   H239      1.0  0.16187504490192245  0.18750542079442067  0.13840341961823457  1.0000
  H   H240      1.0  0.12972786632698732  0.1608745326734466  0.14714275295996357  1.0000
  H   H241      1.0  0.24132267944078695  0.15818697817174632  0.001720881272622005  1.0000
  H   H242      1.0  0.21788084158330098  0.19136960587813365  0.02251644992054359  1.0000
  H   H243      1.0  0.20127209782290034  0.14957705990834227  0.10564393236384297  1.0000
  H   H244      1.0  0.22544472964930687  0.11607063414541152  0.08475162028432197  1.0000
  H   H245      1.0  0.1732491736613209  0.2319749379681216  0.12492289885049847  1.0000
  H   H246      1.0  0.1940663904239636  0.25174387528081704  0.16838247037286022  1.0000
  H   H247      1.0  0.2587076081940489  0.20577456023485666  0.15602821143160725  1.0000
  H   H248      1.0  0.2382853159344031  0.18504488570772354  0.1125442857209264  1.0000
  H   H249      1.0  0.22441638182636353  0.22705461294340262  0.05895265555815514  1.0000
  H   H250      1.0  0.2189007041920069  0.2654341473478779  0.029656238376121247  1.0000
  H   H251      1.0  0.1396132117040993  0.25406025899053875  0.024636410383757166  1.0000
  H   H252      1.0  0.14451003826791914  0.2190619426992634  0.05905389257626598  1.0000
  C   C397      1.0  0.3785903660718421  0.12981146567003085  0.8270252573378598  1.0000
  C   C398      1.0  0.39827080088046735  0.11391399306613217  0.8341309499297908  1.0000
  C   C399      1.0  0.40651112900017794  0.11097733248791151  0.8650774827537209  1.0000
  C   C400      1.0  0.3968730713029504  0.12546115539962616  0.8900620147705103  1.0000
  C   C401      1.0  0.3760675955349815  0.14032378315023042  0.881939176666428  1.0000
  C   C402      1.0  0.367158439032172  0.14185915617804495  0.8512003707428667  1.0000
  H   H253      1.0  0.40744190347185194  0.10324986291927352  0.8158462073662803  1.0000
  H   H254      1.0  0.4219686601664739  0.09766005475019525  0.8690362321883384  1.0000
  H   H255      1.0  0.3672072105810151  0.15042244439192567  0.9008805272483459  1.0000
  H   H256      1.0  0.3510802104593616  0.15353607898807972  0.8463223700824786  1.0000
  C   C403      1.0  0.4082095795355852  0.17018536577742052  0.936967703940027  1.0000
  C   C404      1.0  0.4050914756534934  0.14648901282058854  0.948366419139583  1.0000
  C   C405      1.0  0.4015079626115243  0.14429956415159156  0.9806739213107579  1.0000
  C   C406      1.0  0.3989490694339724  0.16438155111764483  0.9999805952512937  1.0000
  C   C407      1.0  0.39888483601248204  0.18733091238458732  0.9877700632406029  1.0000
  C   C408      1.0  0.40416419931003117  0.19046127821012018  0.9565704378713956  1.0000
  C   C409      1.0  0.40679724221878044  0.12228116299080659  0.9262829007313944  1.0000
  C   C410      1.0  0.43573054640771913  0.11575151734133435  0.9304278880766875  1.0000
  C   C411      1.0  0.4452219511143873  0.10331276472526134  0.9575541560662462  1.0000
  C   C412      1.0  0.4703745333954275  0.1013934545418681  0.9635853991735102  1.0000
  C   C413      1.0  0.48722723736002227  0.11143595254545755  0.9435719867724467  1.0000
  C   C414      1.0  0.4786664896082433  0.12464092114486035  0.9174891286157757  1.0000
  C   C415      1.0  0.45334841323826436  0.12704789678120482  0.9115892071121933  1.0000
  C   C416      1.0  0.3638306156047631  0.10814058445546286  0.944598682946684  1.0000
  C   C417      1.0  0.3457655293662002  0.0907198417330626  0.9500664369908781  1.0000
  C   C418      1.0  0.351561576420413  0.06598576805191902  0.9511265604824163  1.0000
  C   C419      1.0  0.37595113003821085  0.058838431568593086  0.943216224609746  1.0000
  C   C420      1.0  0.3939609642794642  0.07638546681465046  0.9354491486683646  1.0000
  C   C421      1.0  0.38833522217600136  0.10135837104364105  0.9372255718163472  1.0000
  C   C422      1.0  0.33023667744688373  0.04675068927124761  0.9588864734272332  1.0000
  C   C423      1.0  0.27473720548717795  0.07294889153496538  0.026990648587938572  1.0000
  C   C424      1.0  0.26831052788149806  0.05566337855853679  0.004821699507391493  1.0000
  C   C425      1.0  0.2853612993070778  0.04670959657586939  0.9831236661357986  1.0000
  C   C426      1.0  0.3096762454913628  0.05545168769914859  0.983744459171384  1.0000
  C   C427      1.0  0.3170210988383736  0.07068890318722292  0.009233699487951863  1.0000
  C   C428      1.0  0.2993467114250375  0.07979162319323334  0.02957935554632952  1.0000
  C   C429      1.0  0.3398468229340838  0.02269554545585133  0.9768584318074295  1.0000
  C   C430      1.0  0.3293269268808897  0.4991138958025759  0.9721929333784534  1.0000
  C   C431      1.0  0.3371033982523298  0.4794960865679275  0.9897588011686035  1.0000
  C   C432      1.0  0.35589174413647884  0.48180230463558377  0.012991908895419988  1.0000
  C   C433      1.0  0.3662844973026463  0.004607366865753688  0.018086828968434686  1.0000
  C   C434      1.0  0.35795958142365497  0.024570290695599427  0.0009803086084859713  1.0000
  C   C435      1.0  0.330179921880164  0.024895294867039366  0.9034615936770681  1.0000
  C   C436      1.0  0.3188238647902402  0.018266824411840195  0.8751200039370748  1.0000
  C   C437      1.0  0.2964283445091759  0.028106689389218738  0.8651443373883224  1.0000
  C   C438      1.0  0.2860746253798722  0.04706956992879239  0.8829014058715853  1.0000
  C   C439      1.0  0.29737295759330695  0.05405134998855732  0.911161814983848  1.0000
  C   C440      1.0  0.31850288262147275  0.042063908183773834  0.9233054818261063  1.0000
  H   H257      1.0  0.41223455468398035  0.17278870264672402  0.9116106961018866  1.0000
  H   H258      1.0  0.4009947006801649  0.1266638782533663  0.9924167981804278  1.0000
  H   H259      1.0  0.3981447274798768  0.1626963482627502  0.02515787653364887  1.0000
  H   H260      1.0  0.4041900715484506  0.20867963275016055  0.9460002426077941  1.0000
  H   H261      1.0  0.4333492778157686  0.09583530504837902  0.9746856561828807  1.0000
  H   H262      1.0  0.47709923560358425  0.09110117650677618  0.9840248462954192  1.0000
  H   H263      1.0  0.49185391145682755  0.13189061304943525  0.9008829149138673  1.0000
  H   H264      1.0  0.4476294696393433  0.1373583572675588  0.8912534598657297  1.0000
  H   H265      1.0  0.35824521405754634  0.12738413597079387  0.9446368855950278  1.0000
  H   H266      1.0  0.32736582925046337  0.0980171346745703  0.9540872657290542  1.0000
  H   H267      1.0  0.3805751456077846  0.039606988640002054  0.9406685854983244  1.0000
  H   H268      1.0  0.4124934975041326  0.06993334095738737  0.9297211390823287  1.0000
  H   H269      1.0  0.24908777715227748  0.050519959909654626  0.0009483735821361473  1.0000
  H   H270      1.0  0.2790171688972135  0.032930800373035404  0.9651158927727803  1.0000
  H   H271      1.0  0.33560612024382075  0.07849113922041775  0.01072589493225735  1.0000
  H   H272      1.0  0.3038820244319754  0.0936181372830609  0.04709789624399624  1.0000
  H   H273      1.0  0.3141757279598247  0.4967551309448739  0.9550829222515123  1.0000
  H   H274      1.0  0.3277653716652021  0.46194561817273333  0.9862375675641425  1.0000
  H   H275      1.0  0.38152821460916886  0.006763117578149892  0.03503302236394691  1.0000
  H   H276      1.0  0.3667374780747088  0.04286292048209176  0.006460831887888992  1.0000
  H   H277      1.0  0.34849582181797095  0.01702974177470495  0.9099441055678921  1.0000
  H   H278      1.0  0.32687258481907616  0.003724860198821342  0.8610948566638887  1.0000
  H   H279      1.0  0.2673180436089105  0.053805410383102166  0.8757933256141329  1.0000
  H   H280      1.0  0.2882495454522735  0.06856172356201454  0.924869402742677  1.0000
  C   C441      1.0  0.12919499613133037  0.36867394382019963  0.804717298370652  1.0000
  C   C442      1.0  0.12445142958117435  0.39004649650603307  0.8219634064323177  1.0000
  C   C443      1.0  0.13040286056212116  0.3916337704247703  0.854094221354903  1.0000
  C   C444      1.0  0.13746027906096767  0.3705736456950801  0.8708842853019655  1.0000
  C   C445      1.0  0.14383258507341287  0.35014529817832674  0.8535164062987043  1.0000
  C   C446      1.0  0.13873833522320048  0.34887884331932556  0.8208913446131721  1.0000
  H   H281      1.0  0.11538610010358691  0.40523309185109063  0.8101038717871157  1.0000
  H   H282      1.0  0.12624118448618302  0.4089364858382615  0.8659489806690619  1.0000
  H   H283      1.0  0.15227228268851134  0.3336292764844735  0.8646572536219401  1.0000
  H   H284      1.0  0.14513339580171777  0.33243478185345715  0.8076684529552041  1.0000
  C   C447      1.0  0.13743390074997872  0.32568089559600116  0.9210682392324774  1.0000
  C   C448      1.0  0.1509764412549444  0.34705324408829424  0.9245136405799761  1.0000
  C   C449      1.0  0.1721023184509723  0.3461408761902158  0.9438417929763742  1.0000
  C   C450      1.0  0.18040677054038448  0.3253420741259245  0.9582418037364332  1.0000
  C   C451      1.0  0.1661313827572116  0.3041923298809811  0.9555986580041524  1.0000
  C   C452      1.0  0.14400261349887813  0.3046761329492691  0.9371921444990463  1.0000
  C   C453      1.0  0.13913649300868022  0.3715420382128795  0.9085998498792976  1.0000
  C   C454      1.0  0.11101002153977761  0.3739872877083064  0.922997472973835  1.0000
  C   C455      1.0  0.1078610018302754  0.37045979082770536  0.955632085321453  1.0000
  C   C456      1.0  0.0844094560342315  0.368352854704849  0.9683869945372107  1.0000
  C   C457      1.0  0.06336016828519635  0.36995471649707434  0.9495769655589743  1.0000
  C   C458      1.0  0.0654700357595687  0.3747903597052452  0.9177374458300098  1.0000
  C   C459      1.0  0.08898310779808798  0.37619490544014283  0.9048010740346194  1.0000
  C   C460      1.0  0.17975117051763345  0.39605911398300825  0.9024922014753463  1.0000
  C   C461      1.0  0.1951368069487859  0.41556706281895883  0.9083706339892353  1.0000
  C   C462      1.0  0.1897357019930479  0.43320823617445253  0.9317602054376745  1.0000
  C   C463      1.0  0.16700747230204055  0.4307862798380893  0.9470508154372462  1.0000
  C   C464      1.0  0.15145427458405153  0.4114802873511509  0.9407640921191838  1.0000
  C   C465      1.0  0.15707929029970502  0.3940649481958727  0.9174628642950394  1.0000
  C   C466      1.0  0.21061250247925437  0.4527782184951913  0.9419507618833604  1.0000
  C   C467      1.0  0.25231033174737694  0.40742377587403883  0.011675421756840373  1.0000
  C   C468      1.0  0.26108464208487064  0.41051548205538846  0.9816982298194739  1.0000
  C   C469      1.0  0.24696707003050025  0.42333299414821535  0.9598654162910409  1.0000
  C   C470      1.0  0.2247469353433752  0.4351272619641503  0.9675871265875142  1.0000
  C   C471      1.0  0.21596421994755305  0.4308207929010424  0.9982255705527279  1.0000
  C   C472      1.0  0.22904626281917895  0.41662668039111084  0.019744059853585016  1.0000
  C   C473      1.0  0.20085931794490258  0.477663029798385  0.9581152574637944  1.0000
  C   C474      1.0  0.17836903324682632  0.48863343224052785  0.9478554587179857  1.0000
  C   C475      1.0  0.16887855820913283  0.008001397946476299  0.9643566151369489  1.0000
  C   C476      1.0  0.18251437025229372  0.019698033750259608  0.9882117813620771  1.0000
  C   C477      1.0  0.20570494910889445  0.010314768305753605  0.9970392947533622  1.0000
  C   C478      1.0  0.21403209616236898  0.4887158702782927  0.9834412256501558  1.0000
  C   C479      1.0  0.2522870568242276  0.47238412344395125  0.9216341159610688  1.0000
  C   C480      1.0  0.2675559598467095  0.4805555638294256  0.8980010026294384  1.0000
  C   C481      1.0  0.2582587733041845  0.48246289970419537  0.8670449191434222  1.0000
  C   C482      1.0  0.23369485033579596  0.47518260770782894  0.8601708301070751  1.0000
  C   C483      1.0  0.21923500337144658  0.46549896992980133  0.8832261283825068  1.0000
  C   C484      1.0  0.22813530218931247  0.46388538273257496  0.9145809520106104  1.0000
  H   H285      1.0  0.12028085020504674  0.3251733288993534  0.905877911184808  1.0000
  H   H286      1.0  0.18394416204971362  0.36171307648808  0.9479843926561459  1.0000
  H   H287      1.0  0.19742241154596357  0.3257768654576718  0.9716700346292487  1.0000
  H   H288      1.0  0.1326370657360903  0.2883382427356508  0.9341550339557212  1.0000
  H   H289      1.0  0.12461368245902062  0.36862916869366613  0.9705573824962381  1.0000
  H   H290      1.0  0.08405960635485421  0.3653332606359666  0.9940567865586655  1.0000
  H   H291      1.0  0.04953178773351996  0.3773383101136938  0.9020027300434424  1.0000
  H   H292      1.0  0.0889324782212379  0.37821425147429627  0.8798571323316954  1.0000
  H   H293      1.0  0.185683910639361  0.3814343672339392  0.8860865516772424  1.0000
  H   H294      1.0  0.21305631727074506  0.41604539175817734  0.8971963593486989  1.0000
  H   H295      1.0  0.16261086865079982  0.4441307353184729  0.9657056461565863  1.0000
  H   H296      1.0  0.13537918341944272  0.41096343356402404  0.9549802526340885  1.0000
  H   H297      1.0  0.27883055102166987  0.40219616741661224  0.975375691518589  1.0000
  H   H298      1.0  0.25413467206741575  0.4236074306961082  0.9364853955046878  1.0000
  H   H299      1.0  0.19817298931346877  0.43886778774649204  0.0059353544599211995  1.0000
  H   H300      1.0  0.22318990991011886  0.41358164702294664  0.04376638654187219  1.0000
  H   H301      1.0  0.16830062403033036  0.48162901713655526  0.9271448479846495  1.0000
  H   H302      1.0  0.15103513392623721  0.0160009567598085  0.9572294335553247  1.0000
  H   H303      1.0  0.2170845611853017  0.018842998578060183  0.015296197136891987  1.0000
  H   H304      1.0  0.23142103280155726  0.4806151456747204  0.9928079932994676  1.0000
  H   H305      1.0  0.2591288966817233  0.4713470548834484  0.9460623219113526  1.0000
  H   H306      1.0  0.2863958957097953  0.48613016787158714  0.9036287302635718  1.0000
  H   H307      1.0  0.22616992957608245  0.4756241526340658  0.8357259104981408  1.0000
  H   H308      1.0  0.19979857874011206  0.4615549106835511  0.8761944534217418  1.0000
  C   C485      1.0  0.4702370243937696  0.35963509021489193  0.11662122459885717  1.0000
  C   C486      1.0  0.45918407028050784  0.3490517399336238  0.142342828962128  1.0000
  C   C487      1.0  0.43515716972339885  0.35568549255731957  0.15009462384417194  1.0000
  C   C488      1.0  0.4215893253089658  0.37325610065388054  0.13293041270989317  1.0000
  C   C489      1.0  0.43267612650987314  0.38249738693146906  0.10651423644642323  1.0000
  C   C490      1.0  0.4563988855868581  0.3759933515464107  0.09848977016182597  1.0000
  H   H309      1.0  0.4689118210308307  0.33540430282971456  0.15656639124014932  1.0000
  H   H310      1.0  0.42747516308143346  0.34607449891972214  0.17002590055129638  1.0000
  H   H311      1.0  0.422251780878319  0.39339417658194764  0.09021412146436884  1.0000
  H   H312      1.0  0.46382311989925223  0.38325572613966075  0.07633390548833663  1.0000
  C   C491      1.0  0.3935821002693721  0.4231789638440692  0.12309633472656462  1.0000
  C   C492      1.0  0.38019796979159276  0.40144669207131584  0.1248149763689275  1.0000
  C   C493      1.0  0.35646004564029615  0.40121120931801274  0.11023278672957952  1.0000
  C   C494      1.0  0.3479616208817979  0.42035126526929595  0.09130361324182115  1.0000
  C   C495      1.0  0.36273086708568714  0.44044298992055886  0.08772378632546296  1.0000
  C   C496      1.0  0.3850413698804039  0.4425951125013863  0.10514085123846668  1.0000
  C   C497      1.0  0.39297097521547986  0.3795643026438717  0.14292995591386046  1.0000
  C   C498      1.0  0.3898180432279399  0.388007774171186  0.17939844278932243  1.0000
  C   C499      1.0  0.36700192513426555  0.38821125891406144  0.19459235233527414  1.0000
  C   C500      1.0  0.36538964625539244  0.39099424608115574  0.22718207657108835  1.0000
  C   C501      1.0  0.3870766788544305  0.39169188677301897  0.24541858829106478  1.0000
  C   C502      1.0  0.40976078107991765  0.3943430316646326  0.23069027352180208  1.0000
  C   C503      1.0  0.41084630712546366  0.3936376931239296  0.19813779686812297  1.0000
  C   C504      1.0  0.37824388093778405  0.34684503421901347  0.10146026483710192  1.0000
  C   C505      1.0  0.3646572185853413  0.3274925908321583  0.09043354792579304  1.0000
  C   C506      1.0  0.350049018464814  0.3145348172241752  0.11157751995127826  1.0000
  C   C507      1.0  0.3530646895660696  0.3199533068158341  0.143979573677104  1.0000
  C   C508      1.0  0.3683637974262737  0.33865223727988336  0.15457579449488965  1.0000
  C   C509      1.0  0.37936621191370906  0.35420600593633367  0.13333918104717093  1.0000
  C   C510      1.0  0.32936286604173964  0.2967075830105144  0.09626446589580462  1.0000
  C   C511      1.0  0.2785766869707621  0.3490379176948448  0.05149884133319215  1.0000
  C   C512      1.0  0.29467284059142695  0.3353134127469723  0.03281129959620777  1.0000
  C   C513      1.0  0.3114771861533565  0.3194239035828675  0.04696275437548035  1.0000
  C   C514      1.0  0.3119501502933303  0.3159057766002353  0.0792752706442505  1.0000
  C   C515      1.0  0.2970569124577224  0.3316554729812574  0.09758651629504929  1.0000
  C   C516      1.0  0.28052821072258255  0.3476496083173126  0.08406779287896947  1.0000
  C   C517      1.0  0.31349117155494044  0.2806132721026026  0.12048112468088523  1.0000
  C   C518      1.0  0.3254441795814126  0.26771133871097197  0.1447001711314873  1.0000
  C   C519      1.0  0.3121961193079859  0.25597052848052537  0.16756851519658694  1.0000
  C   C520      1.0  0.2861681471452348  0.25517988973320993  0.16572667001331562  1.0000
  C   C521      1.0  0.2746325306060179  0.26514315717305853  0.13892536330123056  1.0000
  C   C522      1.0  0.28773592620831584  0.27723350329942403  0.11666873914273466  1.0000
  C   C523      1.0  0.32563221480414045  0.2633395004784727  0.051431270398934206  1.0000
  C   C524      1.0  0.3346656666160492  0.24370769613286017  0.03409061078261791  1.0000
  C   C525      1.0  0.35851801369153036  0.23512707438415242  0.039235552448307655  1.0000
  C   C526      1.0  0.37338889478147536  0.24621304549298773  0.06304463672887126  1.0000
  C   C527      1.0  0.364506569510085  0.26591459923753796  0.0803587932578991  1.0000
  C   C528      1.0  0.34049761594610767  0.27524357942037936  0.07454482771309005  1.0000
  H   H313      1.0  0.41189516956722  0.42544084990839937  0.13472354951652626  1.0000
  H   H314      1.0  0.3434268307503227  0.3866976738855099  0.11338044618654945  1.0000
  H   H315      1.0  0.32963093593405246  0.4185878092163319  0.07924303715971048  1.0000
  H   H316      1.0  0.3952570944892804  0.459266764960671  0.1046621243014095  1.0000
  H   H317      1.0  0.3500864391425019  0.3840210015230672  0.1804050825731793  1.0000
  H   H318      1.0  0.34777114560065703  0.38926252491325214  0.238688475485663  1.0000
  H   H319      1.0  0.4269657705090873  0.3961168120489388  0.24369230611903317  1.0000
  H   H320      1.0  0.42872051584435095  0.39738034938556954  0.18798042897318573  1.0000
  H   H321      1.0  0.387769459066929  0.35800603858053714  0.08421033651060196  1.0000
  H   H322      1.0  0.3637264610681712  0.3242483846767783  0.0648637990896885  1.0000
  H   H323      1.0  0.341853909544146  0.3117532918293026  0.16265398325372024  1.0000
  H   H324      1.0  0.3694681750930468  0.34102651186944505  0.18031721648198876  1.0000
  H   H325      1.0  0.29343790465718167  0.33806430112569263  0.0068414257720132475  1.0000
  H   H326      1.0  0.3246023709256715  0.31037785702174964  0.030507679901081785  1.0000
  H   H327      1.0  0.29687548680367754  0.330521017021177  0.12338667485397686  1.0000
  H   H328      1.0  0.2693873598269649  0.3590011729054529  0.09915330241024588  1.0000
  H   H329      1.0  0.3459101924740858  0.26859289505181394  0.14710120757988976  1.0000
  H   H330      1.0  0.3225563718864962  0.24817161466590468  0.18802722721740678  1.0000
  H   H331      1.0  0.2546407452516704  0.2646496731961433  0.13510366586754624  1.0000
  H   H332      1.0  0.27859711498089496  0.2833119135736058  0.09529340232821783  1.0000
  H   H333      1.0  0.30709554091616137  0.2703716030897679  0.045253663395203425  1.0000
  H   H334      1.0  0.32207191285223874  0.23617651166920417  0.015431004732234868  1.0000
  H   H335      1.0  0.39233099698075924  0.24015175612357653  0.06917377412251595  1.0000
  H   H336      1.0  0.376492268594826  0.2737748577959042  0.09860461687340927  1.0000
  C   C529      1.0  0.026155893357656265  0.12413933012369639  0.41226865493223774  1.0000
  C   C530      1.0  0.03997661133084495  0.10250117787533566  0.4112920997339515  1.0000
  C   C531      1.0  0.06584951346253563  0.10297160319713154  0.4074646719030156  1.0000
  C   C532      1.0  0.07874452069178309  0.1255708936952581  0.4065692973324598  1.0000
  C   C533      1.0  0.06437064811892221  0.1472323509054942  0.40708264541957845  1.0000
  C   C534      1.0  0.03877835285624066  0.1462853314963624  0.40972101582081627  1.0000
  H   H337      1.0  0.03131537197159227  0.08432198526088683  0.41360097229322473  1.0000
  H   H338      1.0  0.07505153741262573  0.0856641175364631  0.4029567593984573  1.0000
  H   H339      1.0  0.07272568607295533  0.16521925672380894  0.40636634576313385  1.0000
  H   H340      1.0  0.02874568913144131  0.16377828551168175  0.4100481259972593  1.0000
  C   C535      1.0  0.11937395583106021  0.17315185225640656  0.4032408915955137  1.0000
  C   C536      1.0  0.12076019326250371  0.14954057454640832  0.4163467876429292  1.0000
  C   C537      1.0  0.13383169843750237  0.1484898954413436  0.44587027181605604  1.0000
  C   C538      1.0  0.14575223090404224  0.16888316634317566  0.4585941413800345  1.0000
  C   C539      1.0  0.14461795256912904  0.19093187564799885  0.44362825389138427  1.0000
  C   C540      1.0  0.13178511304622784  0.19278954355024103  0.415370232444643  1.0000
  C   C541      1.0  0.10830424075177489  0.12579741043457554  0.39813128737954184  1.0000
  C   C542      1.0  0.10965609143451167  0.12624632045803222  0.3596850971526362  1.0000
  C   C543      1.0  0.1295577357135558  0.13785232049400772  0.3447597999778513  1.0000
  C   C544      1.0  0.13304366369928428  0.13577758086195588  0.31224695857182877  1.0000
  C   C545      1.0  0.11657860917998432  0.12312428586706836  0.2935563128696665  1.0000
  C   C546      1.0  0.0967944231419417  0.11140466471945899  0.3068269578380643  1.0000
  C   C547      1.0  0.09348277435977508  0.11277409979686427  0.33944724419255345  1.0000
  C   C548      1.0  0.11895181967900627  0.09152276128337894  0.4366873102204357  1.0000
  C   C549      1.0  0.13451130595364374  0.07510247725000878  0.45170095101951546  1.0000
  C   C550      1.0  0.15801611140202965  0.06972099010127265  0.4395477335151713  1.0000
  C   C551      1.0  0.1640659931941404  0.08045814206631537  0.4110772098370181  1.0000
  C   C552      1.0  0.14845750019537532  0.09671682362132687  0.3966557100872659  1.0000
  C   C553      1.0  0.12509921173138422  0.1028341008582816  0.40879221393295967  1.0000
  C   C554      1.0  0.17936555137215793  0.05731841771173209  0.461939260775631  1.0000
  C   C555      1.0  0.20698758406403467  0.12803168421153077  0.5000511778295291  1.0000
  C   C556      1.0  0.18584019286070574  0.11793188518437336  0.5120157697576762  1.0000
  C   C557      1.0  0.17755302508314857  0.09498496762552484  0.5019016186086779  1.0000
  C   C558      1.0  0.18981556623206475  0.0821900809641109  0.4782494039528756  1.0000
  C   C559      1.0  0.2108107741211787  0.09307470846334141  0.46524378985736226  1.0000
  C   C560      1.0  0.21961007921144868  0.11526934496849767  0.4763583728598617  1.0000
  C   C561      1.0  0.19958184184380803  0.04028967004608095  0.4454524303497967  1.0000
  C   C562      1.0  0.1941199651431759  0.02745030610847681  0.4175931490451429  1.0000
  C   C563      1.0  0.21280596425138112  0.013729166157025855  0.40284453911894763  1.0000
  C   C564      1.0  0.2365405297896385  0.01206586645547767  0.41596476115949205  1.0000
  C   C565      1.0  0.2412564357621409  0.022702952481649812  0.4457150735571597  1.0000
  C   C566      1.0  0.2234856598081073  0.03746701410766947  0.4598357274512052  1.0000
  C   C567      1.0  0.17318331806676718  0.03726754755293153  0.5177843696575771  1.0000
  C   C568      1.0  0.1603277703390495  0.02188863808248189  0.536859429508698  1.0000
  C   C569      1.0  0.14154066177916322  0.006850405065930766  0.5250357098463184  1.0000
  C   C570      1.0  0.13670647792523824  0.006533523034648121  0.4922912648847121  1.0000
  C   C571      1.0  0.14926953208312685  0.022088890187705906  0.47256198468070504  1.0000
  C   C572      1.0  0.16698862718499216  0.0382596924953993  0.48527630358259755  1.0000
  H   H341      1.0  0.1087436745192006  0.1756016691161624  0.38106186656646596  1.0000
  H   H342      1.0  0.13577791049384944  0.1315798821593472  0.4592029960880124  1.0000
  H   H343      1.0  0.15592896569177636  0.16779046790917088  0.4811933955408631  1.0000
  H   H344      1.0  0.13232259647542025  0.2093430848194231  0.4012639045437265  1.0000
  H   H345      1.0  0.1439210283902913  0.14787856508418395  0.35782033038035865  1.0000
  H   H346      1.0  0.14822967818512384  0.1450299168432951  0.301645723656448  1.0000
  H   H347      1.0  0.08338935324053755  0.10210703184793579  0.29144800421419775  1.0000
  H   H348      1.0  0.07853009955067601  0.1026259917147098  0.34914116620977104  1.0000
  H   H349      1.0  0.10303267934817459  0.09718847217585387  0.4499842195095698  1.0000
  H   H350      1.0  0.12831067974355168  0.06846808722955551  0.47468223166378126  1.0000
  H   H351      1.0  0.18263561536932055  0.07779413384249  0.4014214904681443  1.0000
  H   H352      1.0  0.15574351263563355  0.10501581758667372  0.3754771169117192  1.0000
  H   H353      1.0  0.17551396904442723  0.12674894768431572  0.5309189176912504  1.0000
  H   H354      1.0  0.16056056493801998  0.08751691694071914  0.5111848621562004  1.0000
  H   H355      1.0  0.22024651111300628  0.08613706040644267  0.44423472093384075  1.0000
  H   H356      1.0  0.2363812963106609  0.12275689009752354  0.4660627591312307  1.0000
  H   H357      1.0  0.17608979272287234  0.028558469752027853  0.4055473764892654  1.0000
  H   H358      1.0  0.20824843170048096  0.005413300197667049  0.3806798400830288  1.0000
  H   H359      1.0  0.260032525641736  0.02235225905832937  0.45698485481855544  1.0000
  H   H360      1.0  0.22749965906229147  0.0470914395099137  0.4820553427941181  1.0000
  H   H361      1.0  0.18888436762148292  0.047812751010337384  0.5277791375305013  1.0000
  H   H362      1.0  0.16544471853029022  0.020067555436274333  0.5616314592940754  1.0000
  H   H363      1.0  0.12197054172937086  0.4949527022721308  0.4822057657219715  1.0000
  H   H364      1.0  0.1431303405939005  0.02320267671623039  0.44761326764673803  1.0000
  C   C573      1.0  0.3629724024672562  0.15344122515535843  0.7429125763470865  1.0000
  C   C574      1.0  0.3832428698500904  0.16215909317728508  0.7276768826545089  1.0000
  C   C575      1.0  0.3879808044173255  0.15455826608680284  0.6965656009095964  1.0000
  C   C576      1.0  0.3722523041581242  0.13803093771822408  0.680489448953457  1.0000
  C   C577      1.0  0.350836672746555  0.1311375680661434  0.69602360083622  1.0000
  C   C578      1.0  0.34584427074067814  0.139035255756811  0.7261702657104536  1.0000
  H   H365      1.0  0.39719963967077954  0.17230548459278303  0.739894567127933  1.0000
  H   H366      1.0  0.40394630309632545  0.16084554212859414  0.6846224979711427  1.0000
  H   H367      1.0  0.3376933437065784  0.11932564940185342  0.6841712291875824  1.0000
  H   H368      1.0  0.3291483892964338  0.1330319144798793  0.7383903378493993  1.0000
  C   C579      1.0  0.37684793931191507  0.08398517720661473  0.6585802301283368  1.0000
  C   C580      1.0  0.37114428353213375  0.10210932108605868  0.6368644122104566  1.0000
  C   C581      1.0  0.363490502566844  0.09546487422352136  0.6063213948596569  1.0000
  C   C582      1.0  0.3603353516588757  0.07132915236646639  0.5978069796100515  1.0000
  C   C583      1.0  0.3651693097035499  0.05339311852229052  0.6194822072140665  1.0000
  C   C584      1.0  0.37353749603357317  0.05962922355913367  0.649647973412472  1.0000
  C   C585      1.0  0.376717886463721  0.13023301931129636  0.6447508714279121  1.0000
  C   C586      1.0  0.4049530105960118  0.13092194078500974  0.6327456891858998  1.0000
  C   C587      1.0  0.4092468219438362  0.1358242904463607  0.6007366452049101  1.0000
  C   C588      1.0  0.4333189497725452  0.13653983702949057  0.5895122295884225  1.0000
  C   C589      1.0  0.45337730904977913  0.13215098939126418  0.6095710076343941  1.0000
  C   C590      1.0  0.44974056676276164  0.1265995171866583  0.6409616462453199  1.0000
  C   C591      1.0  0.4257489026389919  0.12548728118595565  0.6524343790760417  1.0000
  C   C592      1.0  0.3340977953487934  0.1446606679974244  0.6211153704307603  1.0000
  C   C593      1.0  0.3191183989382643  0.1624091985958907  0.6063094565320495  1.0000
  C   C594      1.0  0.3277505093418207  0.1858387407268449  0.6004811649941115  1.0000
  C   C595      1.0  0.35140607860981393  0.1917929575558883  0.6112280475063027  1.0000
  C   C596      1.0  0.36734179946100826  0.17426330254216219  0.6236725602042676  1.0000
  C   C597      1.0  0.35889963984305556  0.15036390074017547  0.6288418560582766  1.0000
  C   C598      1.0  0.30954638352121533  0.20646604435859672  0.5853171012671783  1.0000
  C   C599      1.0  0.25262942797471266  0.18057627326678044  0.5172113299324214  1.0000
  C   C600      1.0  0.2488589100693876  0.20182699622958647  0.5344072970181358  1.0000
  C   C601      1.0  0.2677366178009168  0.2105831482562787  0.5530000484339174  1.0000
  C   C602      1.0  0.2898931834907943  0.19776782678905264  0.5580571240084166  1.0000
  C   C603      1.0  0.2943759623142992  0.17768212986780188  0.5388579055501785  1.0000
  C   C604      1.0  0.2758817047175285  0.16921545203328187  0.5182404137721801  1.0000
  C   C605      1.0  0.3231054699467163  0.22702313064496682  0.5661871251090633  1.0000
  C   C606      1.0  0.3431576954881378  0.22103441306144236  0.5469998449784328  1.0000
  C   C607      1.0  0.3549379188426806  0.23779123757580567  0.5297489615857242  1.0000
  C   C608      1.0  0.3478742058438155  0.2623927519199853  0.5318453319135855  1.0000
  C   C609      1.0  0.3268659649060767  0.26889662347204724  0.547754347283221  1.0000
  C   C610      1.0  0.31481267970008536  0.25129271078597143  0.5654111338145816  1.0000
  C   C611      1.0  0.30536174509741787  0.2336254447015272  0.6383017868543889  1.0000
  C   C612      1.0  0.29219797844158485  0.24134188504512766  0.6639381515585427  1.0000
  C   C613      1.0  0.26912247135542183  0.2309602675214981  0.6699025400312051  1.0000
  C   C614      1.0  0.26101479663163196  0.2113872701111832  0.6513694802534606  1.0000
  C   C615      1.0  0.27492855500413527  0.20254606890797128  0.6263658469124995  1.0000
  C   C616      1.0  0.295922487117331  0.21545615632242546  0.617008585733811  1.0000
  H   H369      1.0  0.38343611021443164  0.0889223932775976  0.6821393258288011  1.0000
  H   H370      1.0  0.359883405497747  0.10904714606254287  0.5878026610750413  1.0000
  H   H371      1.0  0.353721993766856  0.06723840119365118  0.5737011085051676  1.0000
  H   H372      1.0  0.37657565256551834  0.04576582028946208  0.6668343898361005  1.0000
  H   H373      1.0  0.39474538937954634  0.14019698681429357  0.5838439116404238  1.0000
  H   H374      1.0  0.43570615100883003  0.1401412254208691  0.5648930103964199  1.0000
  H   H375      1.0  0.46657982529475356  0.12397779881180587  0.6569446792461214  1.0000
  H   H376      1.0  0.4232857273433943  0.12030513804159826  0.6771992458648547  1.0000
  H   H377      1.0  0.3265078147516602  0.1272282071317622  0.626170058339738  1.0000
  H   H378      1.0  0.29984490032142525  0.15760785464286053  0.6010733060434391  1.0000
  H   H379      1.0  0.358166026947079  0.21044568231434765  0.6093752190616325  1.0000
  H   H380      1.0  0.38687365344781327  0.17933737295082508  0.6286174154992572  1.0000
  H   H381      1.0  0.23090707534434696  0.21100764574770642  0.5347320195290575  1.0000
  H   H382      1.0  0.26456477663614303  0.22677478206979554  0.5674072221905406  1.0000
  H   H383      1.0  0.3121537143153981  0.16837568223632005  0.5409280115573036  1.0000
  H   H384      1.0  0.27899833232161475  0.15232975267619261  0.5057218834430492  1.0000
  H   H385      1.0  0.349540061833293  0.20186720089927493  0.5442922322770719  1.0000
  H   H386      1.0  0.3705156432375391  0.2319288919912234  0.5155304134052979  1.0000
  H   H387      1.0  0.31953691463481787  0.2874884052581785  0.5474033604515632  1.0000
  H   H388      1.0  0.29851763401620607  0.257078029878752  0.5784883778757394  1.0000
  H   H389      1.0  0.3231450082880616  0.24299244302380915  0.6351142533832101  1.0000
  H   H390      1.0  0.29944568600351706  0.25593591993213816  0.6792239862270715  1.0000
  H   H391      1.0  0.24385541762837099  0.2016511556490789  0.6568658862839126  1.0000
  H   H392      1.0  0.2672573427327197  0.18671148253081182  0.6140789201389524  1.0000
  C   C617      1.0  0.1352414872865071  0.3622125752582235  0.7108319024004522  1.0000
  C   C618      1.0  0.11709212142706667  0.3480797228724222  0.6955818827147457  1.0000
  C   C619      1.0  0.11006517424579555  0.35255818695550617  0.6646186362321651  1.0000
  C   C620      1.0  0.1214534471466166  0.37102764654235554  0.6473987924912359  1.0000
  C   C621      1.0  0.14023569426016946  0.38433672188781576  0.6624912262525245  1.0000
  C   C622      1.0  0.14643409204506555  0.3806287515766292  0.6942997063297098  1.0000
  H   H393      1.0  0.10963410123726455  0.3330400163912606  0.7089026686590947  1.0000
  H   H394      1.0  0.09502446787004465  0.34098512619689464  0.6538741413854955  1.0000
  H   H395      1.0  0.15098132518933552  0.39755484868371666  0.6497936210092825  1.0000
  H   H396      1.0  0.16041494214210592  0.39173794974410825  0.7057724391604315  1.0000
  C   C623      1.0  0.11844620653327229  0.42285941261083987  0.6101130077077705  1.0000
  C   C624      1.0  0.11892966957674413  0.40044891644349506  0.593853005506477  1.0000
  C   C625      1.0  0.12300097254514615  0.40109195837373907  0.5610584195689197  1.0000
  C   C626      1.0  0.1282790737345245  0.42266829578151427  0.5464650079016208  1.0000
  C   C627      1.0  0.13100182947344663  0.44373602027101067  0.5636466489942064  1.0000
  C   C628      1.0  0.12501933261469353  0.4444069243563634  0.595412151092005  1.0000
  C   C629      1.0  0.11444837421322146  0.3746272097967151  0.6100748050594268  1.0000
  C   C630      1.0  0.08489174142848574  0.3735001361506378  0.6029332974846736  1.0000
  C   C631      1.0  0.0740353968714053  0.3630418747719426  0.575857170471066  1.0000
  C   C632      1.0  0.04834902090022657  0.36388072050484704  0.5703297247888349  1.0000
  C   C633      1.0  0.032764005073589966  0.375883007493657  0.5908015689700229  1.0000
  C   C634      1.0  0.04326954388026987  0.38733500367801754  0.6177344360523416  1.0000
  C   C635      1.0  0.06870221729133744  0.38600859050793196  0.6236773355353106  1.0000
  C   C636      1.0  0.15806828006139448  0.35878337192725485  0.5949441686497944  1.0000
  C   C637      1.0  0.17534511730951813  0.3409190373861815  0.587508978215899  1.0000
  C   C638      1.0  0.1683778651264413  0.3170160941677753  0.5791951268700981  1.0000
  C   C639      1.0  0.14293804837528182  0.31246253861248363  0.5792763074978284  1.0000
  C   C640      1.0  0.12529239768465705  0.3299743435335793  0.5873394539638738  1.0000
  C   C641      1.0  0.1329176206468581  0.35389281849765064  0.5965653935388807  1.0000
  C   C642      1.0  0.18904013860639474  0.29583798146744805  0.5732928177009943  1.0000
  C   C643      1.0  0.25945235119592014  0.32075072681498035  0.5330105126880688  1.0000
  C   C644      1.0  0.25879456499725345  0.2999165896811061  0.5512475019411495  1.0000
  C   C645      1.0  0.2368186708169041  0.29084787750311974  0.5619705077981259  1.0000
  C   C646      1.0  0.21436417715977518  0.30387026118953736  0.5569707361961422  1.0000
  C   C647      1.0  0.21466210802510108  0.32360153179559165  0.5361526805143393  1.0000
  C   C648      1.0  0.23704571190804516  0.33234673263055947  0.5251741944465643  1.0000
  C   C649      1.0  0.17698061838868126  0.27629517954275756  0.548437219622365  1.0000
  C   C650      1.0  0.1619440239907041  0.25792054664266234  0.5595135999765206  1.0000
  C   C651      1.0  0.14930231395535024  0.24245937780280788  0.5387719495914053  1.0000
  C   C652      1.0  0.15167632582366575  0.24475618407332844  0.506354614806242  1.0000
  C   C653      1.0  0.16455929022958093  0.26411524153094457  0.4949582872722077  1.0000
  C   C654      1.0  0.17669262285685058  0.27965655646070464  0.5157811182850536  1.0000
  C   C655      1.0  0.20111653484658187  0.2624200824790157  0.6170300747235044  1.0000
  C   C656      1.0  0.213321861180545  0.25541294729150166  0.6448129507314707  1.0000
  C   C657      1.0  0.2254851060715031  0.27246922196368367  0.6641124511416109  1.0000
  C   C658      1.0  0.22291481270225202  0.2973635991673778  0.6566104060731139  1.0000
  C   C659      1.0  0.21011754785684908  0.3045760955727902  0.6295700940423286  1.0000
  C   C660      1.0  0.1985020059942825  0.2871961514984587  0.6091603291646991  1.0000
  H   H397      1.0  0.11388501889146817  0.42372215935261287  0.6346653722651715  1.0000
  H   H398      1.0  0.12123926121548038  0.3845987431736405  0.5468828493678801  1.0000
  H   H399      1.0  0.1328347628380836  0.4217959507681507  0.5217096917748938  1.0000
  H   H400      1.0  0.12748300395491255  0.46166290810778327  0.6088881352952502  1.0000
  H   H401      1.0  0.08544872659951804  0.35396939142339556  0.557999820035901  1.0000
  H   H402      1.0  0.04024280730718269  0.3540428145853697  0.5492323122410185  1.0000
  H   H403      1.0  0.031559375903364335  0.39713164178200006  0.6333879712111785  1.0000
  H   H404      1.0  0.07619264486426092  0.3955210951764865  0.6448511533798144  1.0000
  H   H405      1.0  0.1649045837185276  0.3770127706703531  0.6008775174706775  1.0000
  H   H406      1.0  0.1944940162137385  0.34625910842424945  0.5872129076912351  1.0000
  H   H407      1.0  0.13530096300175817  0.2944588132578062  0.5747612319967057  1.0000
  H   H408      1.0  0.10581324581223463  0.3256014493600507  0.5877596830956545  1.0000
  H   H409      1.0  0.2763275667960915  0.2902780055406008  0.5567295819784726  1.0000
  H   H410      1.0  0.23777247253968053  0.27416014754104884  0.5766140604413759  1.0000
  H   H411      1.0  0.1973271131960915  0.3338368337495532  0.5309642833361585  1.0000
  H   H412      1.0  0.23683143490188382  0.3484771057162406  0.5102966505822091  1.0000
  H   H413      1.0  0.15797942802640202  0.25690194147475093  0.5842808544308551  1.0000
  H   H414      1.0  0.13711953571177266  0.22868576156256826  0.5495570347519402  1.0000
  H   H415      1.0  0.16630575123257552  0.26802272016230544  0.46957740277885235  1.0000
  H   H416      1.0  0.18627457677358053  0.29494038573228776  0.5057290464396137  1.0000
  H   H417      1.0  0.19613206095400812  0.24745571288627394  0.6007485835325175  1.0000
  H   H418      1.0  0.21502718534261783  0.23575525863471475  0.6491465636529608  1.0000
  H   H419      1.0  0.232880708198981  0.31121697026188894  0.6702415885352556  1.0000
  H   H420      1.0  0.2122001085313516  0.323560065152836  0.6229634235443875  1.0000
  C   C661      1.0  0.48740489886967897  0.3751479081463063  0.4494804220845371  1.0000
  C   C662      1.0  0.47513422636078556  0.3905517341828039  0.42818483329843776  1.0000
  C   C663      1.0  0.4495302429063696  0.38891684644571434  0.42314208371706746  1.0000
  C   C664      1.0  0.4359432579971116  0.3697253350773923  0.4362026141195748  1.0000
  C   C665      1.0  0.4480659383460171  0.3556070409212399  0.45908838814298125  1.0000
  C   C666      1.0  0.4733000392968415  0.3589279347676698  0.4664400102836248  1.0000
  H   H421      1.0  0.48457128491749407  0.40418552931468327  0.4149022500024325  1.0000
  H   H422      1.0  0.43958610819274235  0.40156624033772326  0.40766046047577714  1.0000
  H   H423      1.0  0.4389454975270898  0.3411473319476425  0.4718504603553034  1.0000
  H   H424      1.0  0.48252999008660874  0.34678595012770447  0.4829793693509317  1.0000
  C   C667      1.0  0.39897155413867325  0.3225762721081526  0.44182079109162237  1.0000
  C   C668      1.0  0.3915056976885269  0.3467958252311641  0.44572701188476715  1.0000
  C   C669      1.0  0.36899107649069784  0.3510662379048551  0.46117282014323524  1.0000
  C   C670      1.0  0.3549096991834166  0.33202303483903695  0.47145410787873737  1.0000
  C   C671      1.0  0.3629007960724565  0.30795736444713856  0.46746193112681916  1.0000
  C   C672      1.0  0.384840551317603  0.3033737410051299  0.45253185862099127  1.0000
  C   C673      1.0  0.40639788127266385  0.368198405334618  0.4285668597818749  1.0000
  C   C674      1.0  0.3995697643784006  0.3628137992662986  0.39135509262957546  1.0000
  C   C675      1.0  0.3749694637645245  0.3624574277946472  0.3795313729671959  1.0000
  C   C676      1.0  0.37018732970344487  0.3618379067873411  0.3475772452932002  1.0000
  C   C677      1.0  0.3894674877118086  0.36010917745834614  0.32624584152427866  1.0000
  C   C678      1.0  0.413528466389197  0.35813605221515715  0.3377567770033441  1.0000
  C   C679      1.0  0.41880056951807715  0.35878692844533644  0.37021708976789397  1.0000
  C   C680      1.0  0.40020942572646795  0.4013799313881314  0.4738680377209558  1.0000
  C   C681      1.0  0.38534678373586556  0.41829341397228464  0.4888864538510786  1.0000
  C   C682      1.0  0.36489038295047543  0.42910437133442947  0.47282701555358964  1.0000
  C   C683      1.0  0.3631264422474781  0.42497450684618343  0.44078454425529906  1.0000
  C   C684      1.0  0.3791347663084527  0.4094136354859791  0.4254055906314325  1.0000
  C   C685      1.0  0.3960787290018933  0.39466481155212635  0.44205716997824906  1.0000
  C   C686      1.0  0.34294186936517024  0.4425131587545706  0.49096133518924656  1.0000
  C   C687      1.0  0.3081465223625915  0.3750426768981515  0.5245939917248442  1.0000
  C   C688      1.0  0.3259544343656231  0.38793338420815654  0.5422101879423395  1.0000
  C   C689      1.0  0.3360299803941056  0.40891073619498597  0.531654318671867  1.0000
  C   C690      1.0  0.3283569474758669  0.4185972680844282  0.5026441825858587  1.0000
  C   C691      1.0  0.3116023155210018  0.40501420721080245  0.4839129465698312  1.0000
  C   C692      1.0  0.30068394021412914  0.38383518689840695  0.4949033709652136  1.0000
  C   C693      1.0  0.3276474895083497  0.4612733033832204  0.4691547859815501  1.0000
  C   C694      1.0  0.339145048342883  0.4782192325908541  0.44981947058858757  1.0000
  C   C695      1.0  0.3253679356500817  0.4927124707833069  0.42919004048298176  1.0000
  C   C696      1.0  0.2994357974600242  0.4910711727557216  0.4277646041666569  1.0000
  C   C697      1.0  0.28820360376275395  0.47589944821046287  0.44871159378661984  1.0000
  C   C698      1.0  0.3016706369802456  0.4622842241869083  0.4695702397822879  1.0000
  C   C699      1.0  0.33787893652893264  0.4657344624892095  0.5448533336746203  1.0000
  C   C700      1.0  0.3458521281062599  0.48202469381913493  0.5675791341080875  1.0000
  C   C701      1.0  0.3684123258384733  0.49423249294240035  0.5649407637068496  1.0000
  C   C702      1.0  0.38331459888162156  0.48954433193551233  0.539805808762207  1.0000
  C   C703      1.0  0.3752976943710164  0.4736563328673046  0.5166144135520508  1.0000
  C   C704      1.0  0.3525937015711948  0.46094761249254246  0.5184505283380706  1.0000
  H   H425      1.0  0.41584817238213834  0.3182965099672103  0.42854775845770304  1.0000
  H   H426      1.0  0.3609477115327412  0.36922787078906066  0.46395206281024043  1.0000
  H   H427      1.0  0.33737979221639497  0.33647714611901347  0.4828098450989065  1.0000
  H   H428      1.0  0.39190395891619695  0.28462791747332145  0.4512735588911702  1.0000
  H   H429      1.0  0.3598442051123452  0.36568734124225544  0.3955621592784271  1.0000
  H   H430      1.0  0.35135684871994066  0.3629037807860154  0.3377090236929145  1.0000
  H   H431      1.0  0.4290497216193941  0.35640189359516267  0.3216448100643825  1.0000
  H   H432      1.0  0.4384481022252394  0.3567669863001958  0.37745887929454935  1.0000
  H   H433      1.0  0.41399546239730095  0.39110052942949036  0.48797675328739387  1.0000
  H   H434      1.0  0.3887582514864507  0.4213846979653299  0.5142936026651702  1.0000
  H   H435      1.0  0.34787810298569727  0.4325920094420151  0.42596907969450226  1.0000
  H   H436      1.0  0.3763997202561341  0.40756501845049187  0.40070519081169964  1.0000
  H   H437      1.0  0.33193968919838734  0.3819378289729658  0.5652583232212067  1.0000
  H   H438      1.0  0.34940510670692526  0.41779493205802914  0.5473006908341395  1.0000
  H   H439      1.0  0.30557536201410124  0.4112280510051827  0.4607693046701047  1.0000
  H   H440      1.0  0.2864880361197214  0.3746580036032259  0.4806084174880999  1.0000
  H   H441      1.0  0.359367085373803  0.47898846200333933  0.44853251887250867  1.0000
  H   H442      1.0  0.3337121486208677  0.004625926221635596  0.41220896329420065  1.0000
  H   H443      1.0  0.2681037684667085  0.4754915097585905  0.4503375940067492  1.0000
  H   H444      1.0  0.291783445104408  0.4515650797182811  0.4861024358530303  1.0000
  H   H445      1.0  0.3199260347981099  0.45723085274590486  0.5476086996864107  1.0000
  H   H446      1.0  0.3331274382568809  0.48647244633471726  0.5864225904036247  1.0000
  H   H447      1.0  0.4005878777686038  0.498705291868108  0.5361837201661185  1.0000
  H   H448      1.0  0.3863173928254852  0.4713686083110188  0.4955719173112286  1.0000
  C   C705      1.0  0.2840940330821903  0.3325706927106919  0.5210578590875291  1.0000
  C   C706      1.0  0.29218984824787037  0.355662669641797  0.5409709895366903  1.0000
  H   H449      1.0  0.29974051337890856  0.31861889109870756  0.5216452248058138  1.0000
  H   H450      1.0  0.28073124116270337  0.33720713090906407  0.4962643403124585  1.0000
  H   H451      1.0  0.3013390195451872  0.3506691803717866  0.5641313450950671  1.0000
  H   H452      1.0  0.2742830763679719  0.3647663788634289  0.5468852370334015  1.0000
  C   C707      1.0  0.2527642698251612  0.24029776294695007  0.6973033895557343  1.0000
  C   C708      1.0  0.24230498377620524  0.2666738034634585  0.6936454859768237  1.0000
  H   H453      1.0  0.2643685832311087  0.24006210471483477  0.7195134542365613  1.0000
  H   H454      1.0  0.2381929350266558  0.22635142265614916  0.7024225444337922  1.0000
  H   H455      1.0  0.2589284561219282  0.27943194036738034  0.6936263846526518  1.0000
  H   H456      1.0  0.23157059507168742  0.2722176464828678  0.7147882641695481  1.0000
  C   C709      1.0  0.3626016795148326  0.28054592502304987  0.5133480871186632  1.0000
  C   C710      1.0  0.34940638143488634  0.28685552964110905  0.4812889021617223  1.0000
  H   H457      1.0  0.3657943013588813  0.297037512154741  0.5278794194824036  1.0000
  H   H458      1.0  0.3819990577592195  0.27286017367839954  0.5101748796406135  1.0000
  H   H459      1.0  0.3296884552895023  0.2920332400809797  0.485347933548242  1.0000
  H   H460      1.0  0.348274957158474  0.27027944330947623  0.4651029175915948  1.0000
  C   C711      1.0  0.3784803561305639  0.012516890712155677  0.5903622385140701  1.0000
  C   C712      1.0  0.3580772725331745  0.02705910319530875  0.6094253600375837  1.0000
  H   H461      1.0  0.3920715563956519  0.0036779932051013817  0.6064073508184302  1.0000
  H   H462      1.0  0.3884460045488692  0.027202198226339926  0.5771106948698442  1.0000
  H   H463      1.0  0.33981738783580284  0.0279526010645964  0.5959398251722524  1.0000
  H   H464      1.0  0.35347095108282583  0.01642105830853741  0.6305275479164429  1.0000
  C   C713      1.0  0.25671249031531557  0.49846649963252215  0.39662228276996514  1.0000
  C   C714      1.0  0.284527488750109  0.005496247224983021  0.4023598430180868  1.0000
  H   H465      1.0  0.2548011700789941  0.47849418089800044  0.397577348978558  1.0000
  H   H466      1.0  0.2521184297006579  0.002216102439960059  0.3708354951379579  1.0000
  H   H467      1.0  0.28699983984693667  0.025964479652483496  0.40609176422816334  1.0000
  H   H468      1.0  0.294601926034363  0.0015268837450452446  0.37988235979885376  1.0000
  C   C715      1.0  0.13879660182976924  0.2268748137226279  0.4830796513028339  1.0000
  C   C716      1.0  0.1571072262526808  0.21289984161333642  0.46054486411108536  1.0000
  H   H469      1.0  0.12435008098202834  0.23708734856192643  0.4687560458394625  1.0000
  H   H470      1.0  0.12867709940871352  0.2129250903106315  0.4969663139757742  1.0000
  H   H471      1.0  0.17383967937746636  0.20746827784901625  0.4748517559158064  1.0000
  H   H472      1.0  0.16400077048977868  0.22529326919806023  0.4425633550688033  1.0000
  C   C717      1.0  0.12828971495932745  0.489776018418925  0.5474869287448151  1.0000
  C   C718      1.0  0.14403920339499562  0.4659082731168632  0.5482653077048183  1.0000
  H   H473      1.0  0.12720205491374312  0.4973957480857139  0.5709433548278557  1.0000
  H   H474      1.0  0.10926628222883798  0.48609294144672827  0.5380341609452672  1.0000
  H   H475      1.0  0.16217872497373959  0.46931741428976514  0.5609748512756678  1.0000
  H   H476      1.0  0.14853289576239923  0.4602280063281503  0.5237583087923254  1.0000
  C   C719      1.0  0.21733159261879095  0.1502941381016812  0.5181902727962291  1.0000
  C   C720      1.0  0.23025038020675317  0.16991866251848114  0.4982437150297671  1.0000
  H   H477      1.0  0.23016100188428656  0.1430069118213867  0.5367185572429306  1.0000
  H   H478      1.0  0.20306961010626212  0.16024475305799807  0.5317999662686773  1.0000
  H   H479      1.0  0.21596531825978924  0.18400069331436045  0.49171583749403497  1.0000
  H   H480      1.0  0.23711783783053073  0.16218519970932005  0.4749544255332302  1.0000
  C   C721      1.0  0.38738822878043805  0.3892698860531278  0.28154635529661126  1.0000
  C   C722      1.0  0.38498574766710325  0.36233583513055695  0.2904571230227826  1.0000
  H   H481      1.0  0.4050359049717878  0.3971097606752391  0.2935634758662309  1.0000
  H   H482      1.0  0.37182223763209793  0.40011452778061013  0.2927612202510129  1.0000
  H   H483      1.0  0.3993438328326409  0.3518833654091683  0.2775231388929138  1.0000
  H   H484      1.0  0.36623155077970154  0.35481120441141056  0.2838241882041052  1.0000
  C   C723      1.0  0.1422887508475183  0.35853045507972536  0.7461741274494311  1.0000
  C   C724      1.0  0.12157251838384965  0.36690207244199113  0.7690312494865797  1.0000
  H   H485      1.0  0.14632378115278  0.33835697555434713  0.7508706655301866  1.0000
  H   H486      1.0  0.15930476740245675  0.36910638166911314  0.751541599541723  1.0000
  H   H487      1.0  0.10522028213678875  0.3555738349796809  0.7651489053486499  1.0000
  H   H488      1.0  0.11663601549458812  0.3863799665400171  0.762252667071092  1.0000
  C   C725      1.0  0.2676877812814597  0.39242040529208205  0.035368728136267305  1.0000
  C   C726      1.0  0.2581719325791568  0.3656071221458824  0.03646777057580554  1.0000
  H   H489      1.0  0.26745199307447143  0.401136906235676  0.05891755687498935  1.0000
  H   H490      1.0  0.287460307179846  0.39278702132433835  0.02863001973498822  1.0000
  H   H491      1.0  0.253402854400167  0.35819741943138805  0.012078435820211345  1.0000
  H   H492      1.0  0.24136735690539254  0.36568800172728416  0.05073407206666141  1.0000
  C   C727      1.0  0.36107940458444077  0.1553421766764287  0.7789233477420803  1.0000
  C   C728      1.0  0.36925746955537064  0.1299899566966226  0.7928792527151435  1.0000
  H   H493      1.0  0.3746548900669592  0.16967903855152058  0.7877839744923005  1.0000
  H   H494      1.0  0.34271802655201816  0.16185439080356118  0.7876263885678827  1.0000
  H   H495      1.0  0.38421073876271244  0.12164982695094696  0.7773642021565524  1.0000
  H   H496      1.0  0.3531241246794938  0.11690464544939667  0.7901238867033532  1.0000
  C   C729      1.0  0.275306208995197  0.48963051035916816  0.8394411180495671  1.0000
  C   C730      1.0  0.28220865078531554  0.01705661955799075  0.8367263423516419  1.0000
  H   H497      1.0  0.26679210395286085  0.48381485137131625  0.8162019695289813  1.0000
  H   H498      1.0  0.29290264292580354  0.4797815132957151  0.8406946424483451  1.0000
  H   H499      1.0  0.2645797229909307  0.027878284804026127  0.8315092931872033  1.0000
  H   H500      1.0  0.2941969662712818  0.018953453459319362  0.8163189651395338  1.0000
  C   C731      1.0  0.36474193222537826  0.46027667649420795  0.0325455524236668  1.0000
  C   C732      1.0  0.3535041356788169  0.4616319837974557  0.06621378517553451  1.0000
  H   H501      1.0  0.38537680654499856  0.4595866200841346  0.03466532187363866  1.0000
  H   H502      1.0  0.35860903963755786  0.44304869683068965  0.020782837615361045  1.0000
  H   H503      1.0  0.3326390021050127  0.46030850638520004  0.06368453108862847  1.0000
  H   H504      1.0  0.35766474217389266  0.4795464342270488  0.07805087576483445  1.0000
  C   C733      1.0  0.3664630506256514  0.2121970030878352  0.019631911204041  1.0000
  C   C734      1.0  0.3941250013075247  0.20952949059321369  0.010513822480639303  1.0000
  H   H505      1.0  0.36083485607845694  0.195777616139815  0.03336595429684807  1.0000
  H   H506      1.0  0.3552915501170608  0.21234930788730086  0.9972162685218143  1.0000
  H   H507      1.0  0.4072661642418308  0.20811043515797048  0.032379609669923794  1.0000
  H   H508      1.0  0.40056224867546586  0.22618856662241063  0.9977953753050601  1.0000
  C   C735      1.0  0.13025103195227727  0.10240462563623805  0.2417582970466326  1.0000
  C   C736      1.0  0.11815584249420506  0.12476612517305029  0.25707994669798356  1.0000
  H   H509      1.0  0.12159955315661379  0.08492014571591164  0.25134716178090494  1.0000
  H   H510      1.0  0.1501354257685052  0.10111421546972013  0.2501270646994275  1.0000
  H   H511      1.0  0.12934256900110272  0.1410254150964025  0.24903351389058873  1.0000
  H   H512      1.0  0.0988174258099697  0.12816007585660485  0.24663868537254213  1.0000
  C   C737      1.0  0.2707428078431266  0.2452159011450444  0.1938068103787065  1.0000
  C   C738      1.0  0.2417805296531156  0.2458966833912426  0.191009421453738  1.0000
  H   H513      1.0  0.2767584323021357  0.22587734497628129  0.1995092719436623  1.0000
  H   H514      1.0  0.27537180301516406  0.25636203679855707  0.2153707727694204  1.0000
  H   H515      1.0  0.23651895043728133  0.26534821074779213  0.18686873190638364  1.0000
  H   H516      1.0  0.23508313084949592  0.24059472973863713  0.2144460299129504  1.0000
  C   C739      1.0  0.1615941706631883  0.03665489535216455  0.037563947816718  1.0000
  C   C740      1.0  0.17288139754208018  0.042815653137199886  0.0050751024491863935  1.0000
  H   H517      1.0  0.17534199302939887  0.027168703095336307  0.05255562209300015  1.0000
  H   H518      1.0  0.14677682144320994  0.02254013116158712  0.03345955078529018  1.0000
  H   H519      1.0  0.15888981903694246  0.051813760336824645  0.9888717834273729  1.0000
  H   H520      1.0  0.18830939004132277  0.055703426639922726  0.008927409754856131  1.0000
  C   C741      1.0  0.17657540807256225  0.28664280372192597  0.00825848138235769  1.0000
  C   C742      1.0  0.17226098431775055  0.28082554454863135  0.9728137264140386  1.0000
  H   H521      1.0  0.15998480038875398  0.29693272393073145  0.017126629278970636  1.0000
  H   H522      1.0  0.1931197621954085  0.2989179871264867  0.013277425938478825  1.0000
  H   H523      1.0  0.18884127205120652  0.271825952652345  0.9621074342157127  1.0000
  H   H524      1.0  0.1566333562275948  0.26690798951827127  0.9701371533644572  1.0000
  C   C743      1.0  0.2502956901937176  0.1130631697624865  0.025137342610164124  1.0000
  C   C744      1.0  0.25466064118812076  0.0888415744660438  0.04376853544084153  1.0000
  H   H525      1.0  0.26779842772955265  0.12135308710771461  0.019753610515670948  1.0000
  H   H526      1.0  0.24204826066234078  0.10827136955592538  0.001089976473553168  1.0000
  H   H527      1.0  0.23654205700627026  0.07946285988863898  0.047282701555358964  1.0000
  H   H528      1.0  0.26126105909331143  0.09202749936479991  0.06819196606008249  1.0000
  C   C745      1.0  0.9915450943859564  0.401710812361674  0.5820268981785759  1.0000
  C   C746      1.0  0.004254069062217646  0.37612901434574864  0.5839895592372343  1.0000
  H   H529      1.0  0.9941178846311718  0.40890034089335947  0.5581024896533248  1.0000
  H   H530      1.0  0.9996817672721695  0.415748120697952  0.5988169621256384  1.0000
  H   H531      1.0  0.9961514619187282  0.365051226361721  0.6029452358122811  1.0000
  H   H532      1.0  0.9993522808806178  0.36516608943526047  0.5621567457088015  1.0000
  C   C747      1.0  0.5315544627884937  0.35592605019488077  0.44649584018268434  1.0000
  C   C748      1.0  0.5152878417308964  0.37816292548298047  0.45583161237167963  1.0000
  H   H533      1.0  0.5229623037936048  0.3446450836341845  0.42709128248959893  1.0000
  H   H534      1.0  0.5329274837934671  0.3430019630799041  0.46684591342227677  1.0000
  H   H535      1.0  0.5223969583695619  0.3947703037052812  0.44444961083077417  1.0000
  H   H536      1.0  0.5177942261458236  0.38273549677284935  0.4813509814652809  1.0000
  C   C749      1.0  0.7691640510470701  0.3546992560097965  0.511777003205528  1.0000
  C   C750      1.0  0.7618786281949443  0.3796092845273424  0.4998195742739453  1.0000
  H   H537      1.0  0.7707524324794658  0.3557408958181166  0.5380198349521383  1.0000
  H   H538      1.0  0.7880205477136419  0.34920801581704675  0.5040027642675821  1.0000
  H   H539      1.0  0.765178637179835  0.38033499289468886  0.47321859269911265  1.0000
  H   H540      1.0  0.7414767943763512  0.3822482963655047  0.5006242175546848  1.0000
  C   C751      1.0  0.48021914213753386  0.133253146627855  0.5971455962606009  1.0000
  C   C752      1.0  0.4965674144032739  0.11024056256644024  0.6019686806139949  1.0000
  H   H541      1.0  0.479421119115157  0.13526678613976958  0.5712274870249121  1.0000
  H   H542      1.0  0.4898536143073522  0.1500824409482625  0.6067392363259162  1.0000
  H   H543      1.0  0.48959551447977895  0.09825186746254172  0.6207882602543172  1.0000
  H   H544      1.0  0.49454690322286526  0.09892211847500178  0.5801382547510836  1.0000
  C   C753      1.0  0.7392583852861027  0.014947506134243053  0.6985234866372118  1.0000
  C   C754      1.0  0.7462899479006467  0.49032446480994024  0.6827123655539569  1.0000
  H   H545      1.0  0.7566858734983026  0.025195690106204285  0.703847980750117  1.0000
  H   H546      1.0  0.7303464654737366  0.0115628536075218  0.7215358069332568  1.0000
  H   H547      1.0  0.7295016375590682  0.4788855648766727  0.6791595192579915  1.0000
  H   H548      1.0  0.7570400833803623  0.47941956061920027  0.7004574957096124  1.0000
  C   C755      1.0  0.6480537425223647  0.47889044128292185  0.5100172937161956  1.0000
  C   C756      1.0  0.6654683714920577  0.4746118084190044  0.48138440878258165  1.0000
  H   H549      1.0  0.647230057146226  0.4622472248770322  0.5248542472666857  1.0000
  H   H550      1.0  0.6281792205042037  0.48224602840807923  0.5017082177014377  1.0000
  H   H551      1.0  0.685253468615348  0.4733246533610524  0.4890583657686253  1.0000
  H   H552      1.0  0.665109460649395  0.4904428911568792  0.46459434483551915  1.0000
  C   C757      1.0  0.6271673750590419  0.23929287334960977  0.5624743052231586  1.0000
  C   C758      1.0  0.6133829425603347  0.21698587648894777  0.5459039065040724  1.0000
  H   H553      1.0  0.6408316099214987  0.23306536799427932  0.5808426160799207  1.0000
  H   H554      1.0  0.6140910609922183  0.2502250628531181  0.5762941132614973  1.0000
  H   H555      1.0  0.5957192578670087  0.22372601867282446  0.53478454817053  1.0000
  H   H556      1.0  0.6255787971337241  0.2112676674736149  0.5256684412095111  1.0000
  C   C759      1.0  0.9850980296994426  0.1369820860406619  0.4419162977124816  1.0000
  C   C760      1.0  0.9974682097525384  0.12276714535314572  0.4140713424009567  1.0000
  H   H557      1.0  0.9926709998289807  0.15603589108069016  0.4441989059510186  1.0000
  H   H558      1.0  0.9897350872991589  0.12794840869227783  0.46566640665466463  1.0000
  H   H559      1.0  0.9926286046139917  0.10302970872539302  0.4157045056176505  1.0000
  H   H560      1.0  0.9901226268665861  0.1296429353245234  0.39068177095251755  1.0000
  C   C761      1.0  0.730231535952667  0.20932504878800234  0.3623067538952236  1.0000
  C   C762      1.0  0.7059850103693639  0.20739938858474544  0.3816754966054869  1.0000
  H   H561      1.0  0.7283923011452935  0.1958755472370411  0.34214053090078533  1.0000
  H   H562      1.0  0.7298636412591741  0.227671590131869  0.35203024149076445  1.0000
  H   H563      1.0  0.7065755879193444  0.1898633481769561  0.39476467899425205  1.0000
  H   H564      1.0  0.6900889408068167  0.20563779109639704  0.3647421727271354  1.0000
  C   C763      1.0  0.8437520340216099  0.03305790507039326  0.455709841430084  1.0000
  C   C764      1.0  0.8363544098056288  0.044816463802082096  0.4883277401190518  1.0000
  H   H565      1.0  0.8267259853524103  0.024528242361193067  0.44324861507346863  1.0000
  H   H566      1.0  0.85805420150492  0.018281155362570984  0.4592531370639636  1.0000
  H   H567      1.0  0.852327723796781  0.05532691873773922  0.49947336277333043  1.0000
  H   H568      1.0  0.8208420338625109  0.058992804002489706  0.4849205414198967  1.0000
  C   C765      1.0  0.8402140004000708  0.28906406635751225  0.5299017721790991  1.0000
  C   C766      1.0  0.8577246028660986  0.307958910436522  0.5146636908209999  1.0000
  H   H569      1.0  0.8237145145903947  0.29913243794272054  0.5395765928721448  1.0000
  H   H570      1.0  0.8498338518614406  0.2814000220752887  0.5522383831325646  1.0000
  H   H571      1.0  0.8746975626923774  0.2981246060496416  0.5065002624030525  1.0000
  H   H572      1.0  0.8490849128535202  0.31551762253558796  0.49247033979882326  1.0000
  C   C767      1.0  0.7528444481674288  0.14485589303476365  0.547367545468741  1.0000
  C   C768      1.0  0.7511226706632448  0.12205115287165257  0.5249903442014102  1.0000
  H   H573      1.0  0.7628540262313201  0.1411608379763224  0.5695465704977887  1.0000
  H   H574      1.0  0.7337423427631635  0.1512348532292808  0.5525416166537929  1.0000
  H   H575      1.0  0.7697581617968265  0.11413804145996259  0.5217073041093723  1.0000
  H   H576      1.0  0.7438928758171773  0.12661128421593934  0.5010539973485516  1.0000
  C   C769      1.0  0.5146414657225442  0.3768750623725555  0.10090489383680519  1.0000
  C   C770      1.0  0.4984382282078256  0.3546340927514479  0.11035622903704015  1.0000
  H   H577      1.0  0.5081605675750392  0.39376660951557796  0.11291461264330827  1.0000
  H   H578      1.0  0.5116013830827241  0.38136735674038696  0.07574080937280046  1.0000
  H   H579      1.0  0.5074335231226808  0.34707052614811906  0.13210690687153398  1.0000
  H   H580      1.0  0.49982644108454694  0.3400916030350673  0.0923754362944145  1.0000
  C   C771      1.0  0.6562943192424209  0.37208599581484914  0.2642238419382582  1.0000
  C   C772      1.0  0.6539379727897217  0.3984041432314533  0.27797679534199543  1.0000
  H   H581      1.0  0.6429709058305467  0.36136512033924645  0.27807707729389763  1.0000
  H   H582      1.0  0.6747739814940537  0.3640727272101565  0.26984201891030574  1.0000
  H   H583      1.0  0.6373960070534269  0.40756622152761307  0.2660193664104128  1.0000
  H   H584      1.0  0.6706856047639062  0.40923337064331977  0.2718190059620929  1.0000
  C   C773      1.0  0.02211671947104823  0.34400193192934064  0.9482995645049814  1.0000
  C   C774      1.0  0.036689667087947214  0.36725382120253397  0.9612813019452799  1.0000
  H   H585      1.0  0.02296009200618692  0.3286268809844259  0.9666726506927866  1.0000
  H   H586      1.0  0.031883567382650656  0.33610521841332713  0.9275698524474733  1.0000
  H   H587      1.0  0.026478503581730116  0.3845661035855941  0.9550160676169107  1.0000
  H   H588      1.0  0.03695511648860927  0.36632381583216417  0.9882452086793779  1.0000
  C   C775      1.0  0.9071876802614688  0.37093429630022606  0.7639335835982154  1.0000
  C   C776      1.0  0.8810801788039098  0.3646486039080252  0.7484233083706673  1.0000
  H   H589      1.0  0.9140327038185901  0.38898852262301875  0.7569186222961009  1.0000
  H   H590      1.0  0.9205712709371898  0.35804726238663503  0.7533753266622213  1.0000
  H   H591      1.0  0.8762317465746112  0.3453653870210123  0.7541298289670096  1.0000
  H   H592      1.0  0.8652309408392164  0.3751651988502383  0.758632966140525  1.0000
  C   C777      1.0  0.7705855081169894  0.3651196072315025  0.02781200552732843  1.0000
  C   C778      1.0  0.7552975037033217  0.38310790286383944  0.007389681529055979  1.0000
  H   H593      1.0  0.7586205515015937  0.3522224100411861  0.04052966716095098  1.0000
  H   H594      1.0  0.7822160709110421  0.37579526164212534  0.04546688192627178  1.0000
  H   H595      1.0  0.7679980710329588  0.3932194971343576  0.9922652052964689  1.0000
  H   H596      1.0  0.743008530056646  0.37238362240356104  0.9905109874378359  1.0000
  C   C779      1.0  0.529310069328188  0.13056248551410715  0.9620835575604979  1.0000
  C   C780      1.0  0.5158040851395923  0.10738871390052161  0.9483425424843681  1.0000
  H   H597      1.0  0.5287809724942548  0.13111649185113516  0.9882403652802169  1.0000
  H   H598      1.0  0.5201613950285703  0.14733827059284318  0.9550662085928618  1.0000
  H   H599      1.0  0.5234278078534071  0.10184037355690305  0.9249744600256222  1.0000
  H   H600      1.0  0.5205379555585476  0.09158296367220314  0.9638122273980511  1.0000
  C   C781      1.0  0.6188973835285413  0.15219376427771383  0.7683412141508714  1.0000
  C   C782      1.0  0.6443008800387808  0.14289168794149407  0.7815330661570604  1.0000
  H   H601      1.0  0.6163080285885091  0.17190570516353584  0.773677646591384  1.0000
  H   H602      1.0  0.604559076953284  0.1425242667791016  0.7815426168191463  1.0000
  H   H603      1.0  0.6486910314227239  0.12455588747266502  0.7708721396036425  1.0000
  H   H604      1.0  0.6598419070556222  0.15524522023158785  0.7743175409511414  1.0000
  C   C783      1.0  0.7678746944526428  0.2356572850923624  0.8442546517408751  1.0000
  C   C784      1.0  0.7721528786822859  0.26262199921718943  0.8351146681246413  1.0000
  H   H605      1.0  0.7591307647507121  0.22606748372088253  0.8237637062355152  1.0000
  H   H606      1.0  0.7862804650909496  0.2261725808166706  0.8471294010287396  1.0000
  H   H607      1.0  0.7533914851915169  0.27179219942853783  0.8328057955653682  1.0000
  H   H608      1.0  0.780575584745012  0.2631000360839586  0.8111401186234389  1.0000
  C   C785      1.0  0.6390451779796886  0.02200465737376751  0.9927150653573714  1.0000
  C   C786      1.0  0.6588928878630347  0.03370166274472939  0.9723815589546505  1.0000
  H   H609      1.0  0.6275410816976896  0.036406966354270515  0.006215905158695353  1.0000
  H   H610      1.0  0.624721963839973  0.01187085429026863  0.9779877975990906  1.0000
  H   H611      1.0  0.6632541659723883  0.02248057455291345  0.951317573724135  1.0000
  H   H612      1.0  0.6774093276010086  0.035265047757149594  0.9846277318395936  1.0000
  C   C787      1.0  0.6812729337594994  0.29632369262076563  0.029324114102083083  1.0000
  C   C788      1.0  0.67902805269278  0.2894674598938203  0.06548912868976468  1.0000
  H   H613      1.0  0.6946390479611663  0.31175812419293003  0.02846718094642314  1.0000
  H   H614      1.0  0.6631347973282475  0.303461026309527  0.01996869142584606  1.0000
  H   H615      1.0  0.669392184474223  0.2715176703405589  0.06774117480962666  1.0000
  H   H616      1.0  0.6988885216188068  0.2871949610874462  0.07558417851459123  1.0000
  C   C789      1.0  0.9960818069021251  0.10986159247901993  0.07700412320021667  1.0000
  C   C790      1.0  0.008390009561566637  0.13562116093885604  0.07721781926438932  1.0000
  H   H617      1.0  0.0041669188467321925  0.09866018091887532  0.09690579285487473  1.0000
  H   H618      1.0  0.9995484503061227  0.10013589356280796  0.054054120974282346  1.0000
  H   H619      1.0  0.9996929229541078  0.14695931703110884  0.09595478567766838  1.0000
  H   H620      1.0  0.004653220147492346  0.14372249656529712  0.05330988563123636  1.0000
  C   C791      1.0  0.8719865800274962  0.12308340833177446  0.2629368902221793  1.0000
  C   C792      1.0  0.8790161842901911  0.14736280795478446  0.2450723767904498  1.0000
  H   H621      1.0  0.8535145940363681  0.1168072001891248  0.2541908714169902  1.0000
  H   H622      1.0  0.8833906243469568  0.10836210723299156  0.2529373470182121  1.0000
  H   H623      1.0  0.8957656276369356  0.15609430027906207  0.2561893474584707  1.0000
  H   H624      1.0  0.8641516578081838  0.16142293252559983  0.24879952266948346  1.0000
  C   C793      1.0  0.7939585534913053  0.46158770807652827  0.14856651791042336  1.0000
  C   C794      1.0  0.7707239676729412  0.47573616923115075  0.16339105560020178  1.0000
  H   H625      1.0  0.7887090198203791  0.44365014646901463  0.13815152090571822  1.0000
  H   H626      1.0  0.8085305808113781  0.45740175050333987  0.16737774072142053  1.0000
  H   H627      1.0  0.7741719280317272  0.4958414244182572  0.16517631311061398  1.0000
  H   H628      1.0  0.7692065991259976  0.47003049178713147  0.18799762016494043  1.0000
  C   C795      1.0  0.9113712101889795  0.45780823107504154  0.9790980620665798  1.0000
  C   C796      1.0  0.8844148776473216  0.46722970588952406  0.9746593918621443  1.0000
  H   H629      1.0  0.9153428789838739  0.4531569687117633  0.004515027747812325  1.0000
  H   H630      1.0  0.9240675068133354  0.47304599176855694  0.9735849423774774  1.0000
  H   H631      1.0  0.8715765201945055  0.4516697392287393  0.9766745815622754  1.0000
  H   H632      1.0  0.8811291664911812  0.47264907236957227  0.9493238730136974  1.0000
  C   C797      1.0  0.8475282395431226  0.21272179781940748  0.04748613065778924  1.0000
  C   C798      1.0  0.8620407309327859  0.21562761119864068  0.01681926509639024  1.0000
  H   H633      1.0  0.8271388127189556  0.2108342097347171  0.04326664814822598  1.0000
  H   H634      1.0  0.8501774928026913  0.22899954861878044  0.0633593310446026  1.0000
  H   H635      1.0  0.8585267491191805  0.19905963199386242  0.0013725543003550596  1.0000
  H   H636      1.0  0.8829919069472905  0.2158923662689552  0.02045673025843701  1.0000
  C   C799      1.0  0.7567442165149416  0.10976629596111877  0.028211700735624543  1.0000
  C   C800      1.0  0.7660324270333325  0.13555821752503439  0.04031716492953907  1.0000
  H   H637      1.0  0.7384128478556472  0.1050996495450411  0.03937618594752295  1.0000
  H   H638      1.0  0.7533829969082624  0.10999788617237881  0.0015968993527535227  1.0000
  H   H639      1.0  0.7866720706741631  0.1348578750359292  0.03783494785340622  1.0000
  H   H640      1.0  0.7628641064985962  0.13811696576115587  0.065720015945692  1.0000
  C   C801      1.0  0.9675645773287747  0.6112597145376407  0.08262564290399425  1.0000
  C   C802      1.0  0.956887917276927  0.5974956208354469  0.1057585403088741  1.0000
  C   C803      1.0  0.9320094356040941  0.6003942598518646  0.11247265575528193  1.0000
  C   C804      1.0  0.9174224247201325  0.6187799977177189  0.0976524158634422  1.0000
  C   C805      1.0  0.9279029726335841  0.6297386843555411  0.0715337427239489  1.0000
  C   C806      1.0  0.952843549125886  0.6271191248694641  0.06539338330235325  1.0000
  H   H641      1.0  0.9670801841523383  0.5844807451290969  0.11972901004161834  1.0000
  H   H642      1.0  0.9233429070083736  0.5882856215160106  0.12882577691191321  1.0000
  H   H643      1.0  0.9164955500221085  0.6411341832643044  0.055397182830116055  1.0000
  H   H644      1.0  0.9615306011390174  0.6378281189218822  0.047061603728069716  1.0000
  C   C807      1.0  0.8890231719636366  0.6694380237914009  0.09525734857884345  1.0000
  C   C808      1.0  0.8767996844767406  0.6471680403956807  0.0906675391468983  1.0000
  C   C809      1.0  0.8540025103025706  0.646914420941806  0.07386004524152896  1.0000
  C   C810      1.0  0.8446644191336654  0.6678039024098621  0.05961093494242777  1.0000
  C   C811      1.0  0.8569180276699585  0.6895921820444266  0.06380630203022407  1.0000
  C   C812      1.0  0.8795275890730232  0.6907389690491108  0.08148529385093438  1.0000
  C   C813      1.0  0.8891403508592476  0.6235659180730795  0.10775128595310313  1.0000
  C   C814      1.0  0.8875930978393564  0.6304771023824418  0.14555805935335586  1.0000
  C   C815      1.0  0.8638739990813955  0.6350068110724659  0.1579584002391734  1.0000
  C   C816      1.0  0.861961409713006  0.6411578972431936  0.1899516856277214  1.0000
  C   C817      1.0  0.8825397594797997  0.6430637401744083  0.2095842653781084  1.0000
  C   C818      1.0  0.9057721393666266  0.6406066199612829  0.1964404054489013  1.0000
  C   C819      1.0  0.9086924911285618  0.634129357051097  0.1654444479486764  1.0000
  C   C820      1.0  0.8767834078068202  0.5901767654417635  0.06617343362822146  1.0000
  C   C821      1.0  0.864892138710838  0.5696095202977302  0.055350623352447156  1.0000
  C   C822      1.0  0.8509232055655817  0.5556415688527894  0.07602923936779551  1.0000
  C   C823      1.0  0.8491119609962066  0.5639359039210778  0.10763811060738487  1.0000
  C   C824      1.0  0.8622764558216439  0.5843128316159817  0.11774557629292311  1.0000
  C   C825      1.0  0.8755124579139479  0.5986022825439031  0.09723982726133008  1.0000
  C   C826      1.0  0.833438564494682  0.53463246520819  0.0616215880780679  1.0000
  C   C827      1.0  0.7750196072533043  0.5889115002394197  0.036295619891706675  1.0000
  C   C828      1.0  0.7917224893860545  0.5806798613572415  0.013883033421347557  1.0000
  C   C829      1.0  0.8091412759894488  0.5628491811339575  0.02087853524946205  1.0000
  C   C830      1.0  0.8100449602653372  0.5514678978385485  0.05036231254496664  1.0000
  C   C831      1.0  0.7916964061431615  0.5585737925680718  0.07209102385666284  1.0000
  C   C832      1.0  0.774710655483806  0.5769786224231251  0.06519687842993527  1.0000
  C   C833      1.0  0.8247910620800791  0.5131931900316736  0.08405275058618414  1.0000
  C   C834      1.0  0.8381691817279218  0.5070866492559876  0.11139772873751065  1.0000
  C   C835      1.0  0.8284324243582232  0.9903601261337212  0.13215967427955874  1.0000
  C   C836      1.0  0.8065845629929811  0.9779949129269675  0.12380523261989268  1.0000
  C   C837      1.0  0.7955530653872711  0.9815027796230742  0.0939185845209484  1.0000
  C   C838      1.0  0.8037115376763868  0.9996350123091003  0.07484901630052687  1.0000
  C   C839      1.0  0.8359542938181463  0.5092622463556076  0.00896711663247838  1.0000
  C   C840      1.0  0.8487594152810283  0.9936992962663951  0.9886081338386432  1.0000
  C   C841      1.0  0.8735108128124144  0.9877685053144507  0.9953345493243343  1.0000
  C   C842      1.0  0.8852107083480273  0.9952216128774319  0.023434817710071273  1.0000
  C   C843      1.0  0.8722186061428204  0.5103606445668705  0.04377569843740597  1.0000
  C   C844      1.0  0.8476186474869856  0.5184061288527736  0.03593364979864998  1.0000
  H   H645      1.0  0.9058265382135445  0.6707278675423612  0.11004798141821681  1.0000
  H   H646      1.0  0.8426955038457185  0.629991699938787  0.07072241397974928  1.0000
  H   H647      1.0  0.8273355307332567  0.6659943028942589  0.04517463166644236  1.0000
  H   H648      1.0  0.8889216626709235  0.708338617836583  0.08545741421247209  1.0000
  H   H649      1.0  0.8474704725356556  0.6331552623193302  0.14252047127692624  1.0000
  H   H650      1.0  0.8432137502187121  0.6440706302539024  0.19860649560998994  1.0000
  H   H651      1.0  0.9230164844695258  0.6440313624527213  0.2100011517781592  1.0000
  H   H652      1.0  0.927429410391768  0.6332771244387161  0.15586823784166795  1.0000
  H   H653      1.0  0.8865244215925137  0.6008940134167271  0.04832539508859022  1.0000
  H   H654      1.0  0.8650177289287491  0.5654675636814621  0.02970160402102941  1.0000
  H   H655      1.0  0.8379584408456457  0.5548899381176797  0.12445228997621434  1.0000
  H   H656      1.0  0.8616248732978073  0.5887895432999619  0.14312908721835205  1.0000
  H   H657      1.0  0.7919196297847209  0.590000825296987  0.9907323479083325  1.0000
  H   H658      1.0  0.8227435423577972  0.559498952386151  0.0025826661646216023  1.0000
  H   H659      1.0  0.7924566554067828  0.5511595698662295  0.09601423854915328  1.0000
  H   H660      1.0  0.7623537077819285  0.5833301039884713  0.08431969159148585  1.0000
  H   H661      1.0  0.8549549595701523  0.5161449339824583  0.11938518620652491  1.0000
  H   H662      1.0  0.8370576851247905  0.9878235286830287  0.15548453999236575  1.0000
  H   H663      1.0  0.7791839138436527  0.9711006070327172  0.08590725039671933  1.0000
  H   H664      1.0  0.7944050859650292  0.5031616144384526  0.05240114013376025  1.0000
  H   H665      1.0  0.8167120792925083  0.513104945632471  0.0024129270226994357  1.0000
  H   H666      1.0  0.8393253389919813  0.9870225959279733  0.9670236375244444  1.0000
  H   H667      1.0  0.9047462026873277  0.9912452618820756  0.029000346657370103  1.0000
  H   H668      1.0  0.8815015315185095  0.5160859210051021  0.06507749515386116  1.0000
  C   C845      1.0  0.6430577447538997  0.6410759150228401  0.8178804983905831  1.0000
  C   C846      1.0  0.6340081394203012  0.6594579159537404  0.8368385626311515  1.0000
  C   C847      1.0  0.6309507719313127  0.6564943272238176  0.8685061704425692  1.0000
  C   C848      1.0  0.6380374827804658  0.6345868213761711  0.8831879257341632  1.0000
  C   C849      1.0  0.6495324700293403  0.6164221659045569  0.8636281697821813  1.0000
  C   C850      1.0  0.6503084643691855  0.6192811515617309  0.8313803592490433  1.0000
  H   H669      1.0  0.6302289723834582  0.6774190726262492  0.8283790636885402  1.0000
  H   H670      1.0  0.624608686612418  0.6715401774780958  0.8824358110948962  1.0000
  H   H671      1.0  0.657680258179812  0.5993055754457847  0.8724434308874933  1.0000
  H   H672      1.0  0.6572943371971017  0.6043977642936845  0.816567282353768  1.0000
  C   C851      1.0  0.6298914452448958  0.5846710886844652  0.9227658694182512  1.0000
  C   C852      1.0  0.6426549577394255  0.6052937806555289  0.9337706198067625  1.0000
  C   C853      1.0  0.6591356991111954  0.6021990868012755  0.9599370462566854  1.0000
  C   C854      1.0  0.6632225621649408  0.579615695733997  0.9728877440452047  1.0000
  C   C855      1.0  0.6510335831923099  0.5591097841694942  0.9605482886301848  1.0000
  C   C856      1.0  0.6337688354042922  0.5619718625126602  0.9358096861621082  1.0000
  C   C857      1.0  0.6358999193040118  0.6320420450806851  0.9209440806253604  1.0000
  C   C858      1.0  0.6067417731582647  0.6354258787132795  0.9311441877331321  1.0000
  C   C859      1.0  0.600922196290327  0.6343853767929968  0.9634445269077427  1.0000
  C   C860      1.0  0.5763578862169998  0.6322201211203873  0.9731503872525676  1.0000
  C   C861      1.0  0.5567772378352734  0.6320130355659007  0.9516446839005779  1.0000
  C   C862      1.0  0.5618472274054062  0.6331885239637371  0.9195353579676858  1.0000
  C   C863      1.0  0.5864867903942378  0.6344507082374462  0.9098700879367262  1.0000
  C   C864      1.0  0.680677232923618  0.6509648212004682  0.921194785505116  1.0000
  C   C865      1.0  0.6972972807208702  0.6689262969391763  0.928092751196678  1.0000
  C   C866      1.0  0.6915073921743575  0.6883304977865627  0.9485956350296452  1.0000
  C   C867      1.0  0.6671374096372331  0.6886032791531319  0.9606796102338665  1.0000
  C   C868      1.0  0.649770691174102  0.6713460464340427  0.9512411684274473  1.0000
  C   C869      1.0  0.6560880883924343  0.651959745198532  0.9316814124754657  1.0000
  C   C870      1.0  0.713166694509252  0.7081266264584135  0.9589366144031845  1.0000
  C   C871      1.0  0.7542723401634464  0.6565628612857796  0.021409193911611456  1.0000
  C   C872      1.0  0.7629294676275952  0.6610121408429327  0.991331031161189  1.0000
  C   C873      1.0  0.7495277312589048  0.6765517098845738  0.9717321139328073  1.0000
  C   C874      1.0  0.7295329575433498  0.6902994821064491  0.9821375602754265  1.0000
  C   C875      1.0  0.7215648387646864  0.6862516432403221  0.012812810104653613  1.0000
  C   C876      1.0  0.7340541442725877  0.6696998481049083  0.03254077709262384  1.0000
  C   C877      1.0  0.7052912175076779  0.7331333957973518  0.9756335593949093  1.0000
  C   C878      1.0  0.6820794143660662  0.7438408494165545  0.9698004925259283  1.0000
  C   C879      1.0  0.6738401699620498  0.7632993820642515  0.9879801778064934  1.0000
  C   C880      1.0  0.6905088341997159  0.7746993611063789  0.00962382015750683  1.0000
  C   C881      1.0  0.7148392521798728  0.7661120782032275  0.012816749752764058  1.0000
  C   C882      1.0  0.7218617936785706  0.7453244479924541  0.9966375461527174  1.0000
  C   C883      1.0  0.7518416502971969  0.7246600759256906  0.9307287339323942  1.0000
  C   C884      1.0  0.7646498083803314  0.7310868741697283  0.9043139902682372  1.0000
  C   C885      1.0  0.7529462234115438  0.7322365950677255  0.8750316603127801  1.0000
  C   C886      1.0  0.7271326503762601  0.728574460705344  0.872698911098292  1.0000
  C   C887      1.0  0.714399548962525  0.7214930689057265  0.8992569146937379  1.0000
  C   C888      1.0  0.7271024974047074  0.7182232541660917  0.9283291300833048  1.0000
  H   H673      1.0  0.6154046735058556  0.586972678327781  0.9037600518672533  1.0000
  H   H674      1.0  0.6678450386451431  0.618161973421771  0.9728137264140386  1.0000
  H   H675      1.0  0.6764764111205391  0.577730786404356  0.9932248319462078  1.0000
  H   H676      1.0  0.6229215463285186  0.5462928815747784  0.9271066453363058  1.0000
  H   H677      1.0  0.6159425874828318  0.6335599219002056  0.9815716835468353  1.0000
  H   H678      1.0  0.5733410659558671  0.6312607107781592  0.9991896478109985  1.0000
  H   H679      1.0  0.5464400826477511  0.6337222226933727  0.9015777255806185  1.0000
  H   H680      1.0  0.5899008809737181  0.6317352227647116  0.8848139259542923  1.0000
  H   H681      1.0  0.687102926636441  0.6361256204644994  0.9063267923028466  1.0000
  H   H682      1.0  0.7155294977637845  0.6665545562185076  0.918515824790013  1.0000
  H   H683      1.0  0.6607321885944241  0.7025334988523116  0.9783435597617913  1.0000
  H   H684      1.0  0.631282559954559  0.6726648165475076  0.9616776544218458  1.0000
  H   H685      1.0  0.7785366769442216  0.6506736329023212  0.9814690139294115  1.0000
  H   H686      1.0  0.7561295068385179  0.6780211454937114  0.9479223133525873  1.0000
  H   H687      1.0  0.7046911876223855  0.6957650677215416  0.020456491491884863  1.0000
  H   H688      1.0  0.7265563041497365  0.6662708419943205  0.0560549846812844  1.0000
  H   H689      1.0  0.6694755037159271  0.7374168891406491  0.9500855383150502  1.0000
  H   H690      1.0  0.6547456241323911  0.7698605266730536  0.9845729791073382  1.0000
  H   H691      1.0  0.7276840405587367  0.7739523625551082  0.030585756563634253  1.0000
  H   H692      1.0  0.7403170872163679  0.7379148943598133  0.0008344246327889331  1.0000
  H   H693      1.0  0.7626040809111754  0.7238073419160939  0.9531417501825473  1.0000
  H   H694      1.0  0.7849695299463207  0.7341147785595187  0.9066300258240749  1.0000
  H   H695      1.0  0.7164632279323516  0.729180179610335  0.8499468463440885  1.0000
  H   H696      1.0  0.6944636209926093  0.7202222495387781  0.8964872226888186  1.0000
  C   C889      1.0  0.9085063876261107  0.8694033895306924  0.7999706193139455  1.0000
  C   C890      1.0  0.9208260877790214  0.8497727359723595  0.8138286300006279  1.0000
  C   C891      1.0  0.9231980332377189  0.8484865933295603  0.8461337445062815  1.0000
  C   C892      1.0  0.9143595627920349  0.8673991544554295  0.8656218704926189  1.0000
  C   C893      1.0  0.9005305066215323  0.8864633765447749  0.851374670325935  1.0000
  C   C894      1.0  0.8980198042846762  0.8876151565340975  0.8185824720538989  1.0000
  H   H697      1.0  0.9283146012545741  0.8346426944104067  0.8000876149244982  1.0000
  H   H698      1.0  0.9310110633088634  0.8319107255229644  0.8563553406037466  1.0000
  H   H699      1.0  0.8929172459530945  0.9009794124257502  0.8667751129394947  1.0000
  H   H700      1.0  0.8883716491851109  0.9031493299799878  0.8078284265451432  1.0000
  C   C895      1.0  0.9271052029064767  0.9112194277852035  0.9129430134628737  1.0000
  C   C896      1.0  0.9158877259670556  0.8901892002351982  0.923551411374819  1.0000
  C   C897      1.0  0.906317659166715  0.8913635419838761  0.9541636710257416  1.0000
  C   C898      1.0  0.9052680484599431  0.9131301220281307  0.9712044398525597  1.0000
  C   C899      1.0  0.9143767760493835  0.9342229627042775  0.9589103500824482  1.0000
  C   C900      1.0  0.925071159129686  0.9333900467837  0.9296829364339851  1.0000
  C   C901      1.0  0.918352983010356  0.8651924330513862  0.903060465869459  1.0000
  C   C902      1.0  0.9464569625263766  0.8563409816841573  0.9124177270481476  1.0000
  C   C903      1.0  0.9515065426526277  0.8443837817266783  0.94059695553268  1.0000
  C   C904      1.0  0.9751860293704647  0.839941168521434  0.9516351332384919  1.0000
  C   C905      1.0  0.9952924274237872  0.8490436802430347  0.9359266817726609  1.0000
  C   C906      1.0  0.9912220224292271  0.8610727372163102  0.9077450656226069  1.0000
  C   C907      1.0  0.9670133445375237  0.8649407766996626  0.8964155927231742  1.0000
  C   C908      1.0  0.8705160813924238  0.8560799750233847  0.9118112600056911  1.0000
  C   C909      1.0  0.8506341425503893  0.8416797501371293  0.9202492699586091  1.0000
  C   C910      1.0  0.8544383237946037  0.8175335767479972  0.9292531566401183  1.0000
  C   C911      1.0  0.8780308101524839  0.8076087210743473  0.9249338697117571  1.0000
  C   C912      1.0  0.89814854551859  0.8218875742542434  0.9158488024025175  1.0000
  C   C913      1.0  0.8953477212311094  0.8471999119017605  0.9111642026493694  1.0000
  C   C914      1.0  0.8313658203895592  0.8021011623883897  0.9427315285088851  1.0000
  C   C915      1.0  0.7863976123363243  0.847452719355546  0.007792098676046582  1.0000
  C   C916      1.0  0.7754134237767389  0.8280253320841887  0.9916121310230331  1.0000
  C   C917      1.0  0.7894273917454897  0.8126518941256426  0.9728614797244683  1.0000
  C   C918      1.0  0.8143918246573444  0.8176040637804366  0.9677829151602758  1.0000
  C   C919      1.0  0.825668561374261  0.8358565317658694  0.9860724330548292  1.0000
  C   C920      1.0  0.8118336261636706  0.8512933675200115  0.0052258357735575625  1.0000
  C   C921      1.0  0.8386143604758566  0.7791906099489703  0.9633967735973131  1.0000
  C   C922      1.0  0.8241006577054244  0.7580958219925837  0.9624035047403765  1.0000
  C   C923      1.0  0.8316609905302178  0.7381449657095819  0.9800053749647429  1.0000
  C   C924      1.0  0.8529278840901399  0.7386631678142191  0.9993172804714494  1.0000
  C   C925      1.0  0.8662646084122472  0.7603231944737747  0.002103640769374245  1.0000
  C   C926      1.0  0.8588061960181395  0.7805887021925481  0.9851675078221873  1.0000
  C   C927      1.0  0.8283152047494203  0.7777221565882648  0.8894937503763974  1.0000
  C   C928      1.0  0.8147098957739821  0.7685913484350823  0.8639648306207103  1.0000
  C   C929      1.0  0.7904819017246776  0.7765882951120908  0.8578667328788447  1.0000
  C   C930      1.0  0.7813159823826711  0.7968097468404104  0.8741840390526537  1.0000
  C   C931      1.0  0.7957347203155268  0.8069489770841388  0.8992282627074801  1.0000
  C   C932      1.0  0.8179520702061981  0.7953531050546073  0.9095978940672772  1.0000
  H   H701      1.0  0.9368705785276403  0.910480903092203  0.8906422174922304  1.0000
  H   H702      1.0  0.8993134015338125  0.8748709305382297  0.9644139191094645  1.0000
  H   H703      1.0  0.8990031200248313  0.9132362421928621  0.9949579189649755  1.0000
  H   H704      1.0  0.9329619668633606  0.9494697167322272  0.9189217279286649  1.0000
  H   H705      1.0  0.9366720386919986  0.8388015624314464  0.9564606052574074  1.0000
  H   H706      1.0  0.9780914050049274  0.8303601229389124  0.9732888718528135  1.0000
  H   H707      1.0  0.006590846932914353  0.8680516240848042  0.8948659977997324  1.0000
  H   H708      1.0  0.9652660888261843  0.8763720406339522  0.8755736603861564  1.0000
  H   H709      1.0  0.8664382816728845  0.8756315665435116  0.907215003876838  1.0000
  H   H710      1.0  0.8321925714512028  0.8504894562579156  0.9230523892808291  1.0000
  H   H711      1.0  0.882021696371333  0.7880463772779795  0.9275412004612156  1.0000
  H   H712      1.0  0.9160978704595159  0.8129784553201486  0.9107033832037235  1.0000
  H   H713      1.0  0.7554162231440366  0.8247516216871352  0.993605306447056  1.0000
  H   H714      1.0  0.7800927348806106  0.7969669747908886  0.9609613547654012  1.0000
  H   H715      1.0  0.8453433706770432  0.8396783569190177  0.9846469967385043  1.0000
  H   H716      1.0  0.8212018391165339  0.8662703277707964  0.019293961026130416  1.0000
  H   H717      1.0  0.8070052866026007  0.7566689865739711  0.9486004103606881  1.0000
  H   H718      1.0  0.8205138184115052  0.7218746842511584  0.9801080445821667  1.0000
  H   H719      1.0  0.88275029427278  0.7614005515058837  0.0183255955205829  1.0000
  H   H720      1.0  0.868612828951279  0.7975833396200126  0.9894342661090759  1.0000
  H   H721      1.0  0.846097281488235  0.7681903934079491  0.8963129231057504  1.0000
  H   H722      1.0  0.8217524161435036  0.7527820827062037  0.8509783178493687  1.0000
  H   H723      1.0  0.7634171858967707  0.8045850580762056  0.8673720293198652  1.0000
  H   H724      1.0  0.7884547492218712  0.8231077865073035  0.910474167313661  1.0000
  C   C933      1.0  0.5427396045640566  0.8731217467592872  0.10790529037923872  1.0000
  C   C934      1.0  0.5525278280437291  0.882339790908408  0.13584264834644497  1.0000
  C   C935      1.0  0.5776280430037943  0.8813740799422418  0.14240705716465585  1.0000
  C   C936      1.0  0.5947542328841288  0.8709056378411211  0.12095746395242091  1.0000
  C   C937      1.0  0.5850623395042219  0.8625915543783916  0.09174962916123401  1.0000
  C   C938      1.0  0.5588807711460305  0.8625282572985378  0.08597768652960305  1.0000
  H   H725      1.0  0.5402849228673611  0.891093613462198  0.15271031142295566  1.0000
  H   H726      1.0  0.5832415911171042  0.8891142871522062  0.16533652546710542  1.0000
  H   H727      1.0  0.5966323168408657  0.8552832013891875  0.07340877645796884  1.0000
  H   H728      1.0  0.5509427725513613  0.8550906880259321  0.06408947916107184  1.0000
  C   C939      1.0  0.6295356444441199  0.8255919235341858  0.11006445631031503  1.0000
  C   C940      1.0  0.640107935760223  0.8487348643935059  0.1134475395877031  1.0000
  C   C941      1.0  0.665179277116887  0.8510281579194222  0.10474449876190063  1.0000
  C   C942      1.0  0.6773527593435302  0.8319956763648991  0.0899519557901101  1.0000
  C   C943      1.0  0.6655831470388365  0.8101224724063388  0.08369340692520108  1.0000
  C   C944      1.0  0.6424761412034561  0.8062864455540825  0.09575708697248966  1.0000
  C   C945      1.0  0.6243134424331489  0.8715776653572646  0.12761427542631318  1.0000
  C   C946      1.0  0.6338303731971306  0.868545089761327  0.16403357639203262  1.0000
  C   C947      1.0  0.6572661846636711  0.8784772927648807  0.17372893100856304  1.0000
  C   C948      1.0  0.6647427322081149  0.8794942916019098  0.2052881388053056  1.0000
  C   C949      1.0  0.6495677022663676  0.8702270611205007  0.22833006615381699  1.0000
  C   C950      1.0  0.6270895934819524  0.8594761587177007  0.2194443689156211  1.0000
  C   C951      1.0  0.6200406374853564  0.8568749012375143  0.18729110993713383  1.0000
  C   C952      1.0  0.6369435582391004  0.8979665075990891  0.07940754731414061  1.0000
  C   C953      1.0  0.6503825813163825  0.9168685818877579  0.06785411138879276  1.0000
  C   C954      1.0  0.6610904263895117  0.9341469189906187  0.08807453439056868  1.0000
  C   C955      1.0  0.6505155580763289  0.9363187258023528  0.11804331818345194  1.0000
  C   C956      1.0  0.6352615181882005  0.9187166127385972  0.12964546248543804  1.0000
  C   C957      1.0  0.631590802601293  0.8971948677656459  0.1114003551695843  1.0000
  C   C958      1.0  0.6855946609904261  0.949139537573725  0.07852745380292228  1.0000
  C   C959      1.0  0.7389413109686891  0.9006867026334477  0.027612635456284677  1.0000
  C   C960      1.0  0.7384018376625309  0.9260610011933298  0.022359389282540495  1.0000
  C   C961      1.0  0.7220641942703071  0.9406666865083978  0.03837145629608326  1.0000
  C   C962      1.0  0.7056573581503421  0.9317933674116846  0.06052517207060328  1.0000
  C   C963      1.0  0.708196208673973  0.907272101119912  0.0675952884462641  1.0000
  C   C964      1.0  0.7235814149725172  0.8913873471210461  0.05007818034791027  1.0000
  C   C965      1.0  0.703633473724361  0.9593396450613696  0.10643377211834927  1.0000
  C   C966      1.0  0.7108561344376242  0.9442832071862096  0.13217901437028276  1.0000
  C   C967      1.0  0.7306098347122638  0.9511863470905256  0.1520582399690389  1.0000
  C   C968      1.0  0.74522182633704  0.9709766309273706  0.1456974990198104  1.0000
  C   C969      1.0  0.7371344543871085  0.9866040078668572  0.12192900505311201  1.0000
  C   C970      1.0  0.7166364700246127  0.980785327747026  0.10345659197961317  1.0000
  C   C971      1.0  0.6620480407231665  0.9915116149336591  0.0689194877444781  1.0000
  C   C972      1.0  0.651415216395925  0.5081820338101914  0.0484753404833393  1.0000
  C   C973      1.0  0.65057249081045  0.5037935468669928  0.015583290039195  1.0000
  C   C974      1.0  0.6594721601531576  0.9817341329037612  0.004254342426176903  1.0000
  C   C975      1.0  0.6700861205137262  0.9650446027461103  0.024448262340664377  1.0000
  C   C976      1.0  0.672800732894509  0.9699361005487829  0.05669607287380236  1.0000
  H   H729      1.0  0.6107451227843702  0.8217889913608558  0.11892723195950464  1.0000
  H   H730      1.0  0.6750652520616314  0.868278596638471  0.10914305618557506  1.0000
  H   H731      1.0  0.6967699664134012  0.8348811714119501  0.08381995319783964  1.0000
  H   H732      1.0  0.6330533312756166  0.7890729050089582  0.09220209177755488  1.0000
  H   H733      1.0  0.6693859055068029  0.8876110362626181  0.15817925929991053  1.0000
  H   H734      1.0  0.6819723323425086  0.8889390626947428  0.2125540437537279  1.0000
  H   H735      1.0  0.6155574405125921  0.8525926851494346  0.23783058726379447  1.0000
  H   H736      1.0  0.6037410007057074  0.8469332808795269  0.17993041466750864  1.0000
  H   H737      1.0  0.6334861541805662  0.8826405268940198  0.06443855586031254  1.0000
  H   H738      1.0  0.6569004396143264  0.9144275419709019  0.04392397246629001  1.0000
  H   H739      1.0  0.6570843030485256  0.9509938684945671  0.13417032741519885  1.0000
  H   H740      1.0  0.6295519808584354  0.9193744649100352  0.1540020384700775  1.0000
  H   H741      1.0  0.7510337683262724  0.9331968267991506  0.005135032853775596  1.0000
  H   H742      1.0  0.7231160121353012  0.9602785773146826  0.03490384965923473  1.0000
  H   H743      1.0  0.6978550269836805  0.8989617591991519  0.08696594128894453  1.0000
  H   H744      1.0  0.7248173574802511  0.8720486874972732  0.05459468844834591  1.0000
  H   H745      1.0  0.7031165254329453  0.9263278327875771  0.13408986308712492  1.0000
  H   H746      1.0  0.7366594635182044  0.9394886582719374  0.1711273306563561  1.0000
  H   H747      1.0  0.7465181787709458  0.503723696882026  0.11736116214396448  1.0000
  H   H748      1.0  0.712291507591187  0.9930868576941602  0.08415422637084713  1.0000
  H   H749      1.0  0.6615335221784054  0.9949286488063304  0.09461817051874268  1.0000
  H   H750      1.0  0.6422106792146669  0.5244529691587212  0.05858734273336837  1.0000
  H   H751      1.0  0.6582527622904776  0.9768967502996905  0.9795039652052316  1.0000
  H   H752      1.0  0.6742365313587434  0.9475370383084216  0.014922981139229111  1.0000
  C   C977      1.0  0.9566110782081692  0.6391611207539122  0.43807215622289536  1.0000
  C   C978      1.0  0.9473215839666042  0.650491346227065  0.41092439924364327  1.0000
  C   C979      1.0  0.9230347172299561  0.646871420382677  0.40045687359746546  1.0000
  C   C980      1.0  0.9072274119872905  0.6319552108800601  0.4175430080691918  1.0000
  C   C981      1.0  0.9156341140954899  0.6241282953966231  0.4473983777498046  1.0000
  C   C982      1.0  0.9400905395344312  0.6276749020370319  0.4576677271576994  1.0000
  H   H753      1.0  0.9601669890277034  0.6594655586607626  0.39546665265756775  1.0000
  H   H754      1.0  0.9173068354442105  0.6542855749447977  0.3778552317711154  1.0000
  H   H755      1.0  0.9031741834691792  0.6150492410770658  0.46316174552262984  1.0000
  H   H756      1.0  0.9469083886497305  0.618425389963711  0.4788630339918965  1.0000
  C   C983      1.0  0.8874467329760792  0.5787754620963828  0.41804680549422457  1.0000
  C   C984      1.0  0.8703966857725289  0.597309928941172  0.41030121854253643  1.0000
  C   C985      1.0  0.8449051378962453  0.5920482255409331  0.41048268112216907  1.0000
  C   C986      1.0  0.8367923795531339  0.5702360487250656  0.4224114580674939  1.0000
  C   C987      1.0  0.8537519793837488  0.5531056692432467  0.4340871424675416  1.0000
  C   C988      1.0  0.8791013650573721  0.5570988144232659  0.43033373226777166  1.0000
  C   C989      1.0  0.8798172410215851  0.6247610505154859  0.4029090060880277  1.0000
  C   C990      1.0  0.8772541911377102  0.6240096522326013  0.36516478952443776  1.0000
  C   C991      1.0  0.8566636245761664  0.6341291826790397  0.3487639150573768  1.0000
  C   C992      1.0  0.8548445865008042  0.6336764408966589  0.3163871705860788  1.0000
  C   C993      1.0  0.873359559115727  0.6223259439107701  0.2993989304007333  1.0000
  C   C994      1.0  0.8932260841951497  0.61102506674179  0.31473490604521315  1.0000
  C   C995      1.0  0.8948090199582468  0.6114335603699506  0.3473122144203157  1.0000
  C   C996      1.0  0.8527250370001732  0.6417847807260472  0.44788068618514404  1.0000
  C   C997      1.0  0.835882481606018  0.6582237307027731  0.46030132222789427  1.0000
  C   C998      1.0  0.8319923029833258  0.6814239136370843  0.4470545539147113  1.0000
  C   C999      1.0  0.8465265132065141  0.6875869306043052  0.4214778808485944  1.0000
  C   C1000     1.0  0.8618085891254943  0.6698095315763685  0.40776790542424385  1.0000
  C   C1001     1.0  0.8641403517686647  0.6462501489077667  0.41963937839705306  1.0000
  C   C1002     1.0  0.8100479071224959  0.700038930068059  0.4580831809584373  1.0000
  C   C1003     1.0  0.7670579205822294  0.6649350341373614  0.5306061335079363  1.0000
  C   C1004     1.0  0.7927222956955989  0.6664231233508627  0.5344311736733507  1.0000
  C   C1005     1.0  0.8059554739592066  0.6807879949414903  0.514718607127994  1.0000
  C   C1006     1.0  0.7945448879348731  0.6915285440271409  0.487952876632179  1.0000
  C   C1007     1.0  0.7685427405386357  0.6937272241596324  0.4887742335715689  1.0000
  C   C1008     1.0  0.7550820478461964  0.6801585694803884  0.5089380689004858  1.0000
  C   C1009     1.0  0.7937796908124168  0.700883416861682  0.4263463308468965  1.0000
  C   C1010     1.0  0.791959069601317  0.7215516322665726  0.40743363225123636  1.0000
  C   C1011     1.0  0.7719974407240616  0.7235175510773773  0.38551725042955165  1.0000
  C   C1012     1.0  0.7557203033180897  0.7043479271255438  0.38006859770952933  1.0000
  C   C1013     1.0  0.7618148082549505  0.6820129045022573  0.39361621187841905  1.0000
  C   C1014     1.0  0.7804740350939965  0.6805211287700162  0.4163300739842788  1.0000
  C   C1015     1.0  0.8032043852501113  0.7448619232799409  0.4773397033891909  1.0000
  C   C1016     1.0  0.809756302978562  0.7651389176262028  0.49519227849331293  1.0000
  C   C1017     1.0  0.8333577143626921  0.7669269860185663  0.5089929852074797  1.0000
  C   C1018     1.0  0.8505018007833327  0.7478002849763827  0.5047692048999778  1.0000
  C   C1019     1.0  0.8439677669478796  0.7273945303864341  0.48610004818750885  1.0000
  C   C1020     1.0  0.8199655473298484  0.7257720844616815  0.47227546481812727  1.0000
  H   H757      1.0  0.9072513520604488  0.5811933875464735  0.415632875652006  1.0000
  H   H758      1.0  0.8306965379972476  0.6053593073009104  0.40152177242004655  1.0000
  H   H759      1.0  0.8166833803765006  0.5672984998905921  0.42371273577670165  1.0000
  H   H760      1.0  0.8923128060188092  0.5432382102203519  0.4362623057576119  1.0000
  H   H761      1.0  0.84162329475303  0.6418480289252531  0.36182922079092716  1.0000
  H   H762      1.0  0.8378519252045015  0.641230343934341  0.3051675303006342  1.0000
  H   H763      1.0  0.9077385189277098  0.6016108248172619  0.302185336064303  1.0000
  H   H764      1.0  0.9101749685897091  0.6015687241551039  0.35821429519140324  1.0000
  H   H765      1.0  0.8567944335767153  0.624842199055783  0.4603108728899801  1.0000
  H   H766      1.0  0.8246840252871976  0.6511495228100458  0.4783711748944712  1.0000
  H   H767      1.0  0.8441042072118613  0.7058632598576722  0.4118579764625428  1.0000
  H   H768      1.0  0.8716611655941043  0.6744239311559601  0.3863935236759356  1.0000
  H   H769      1.0  0.803101641451223  0.6557574663353974  0.5520927355357541  1.0000
  H   H770      1.0  0.8260260895790068  0.6802139728477744  0.5178727132818719  1.0000
  H   H771      1.0  0.758652270623544  0.7047171698834271  0.4707163192325994  1.0000
  H   H772      1.0  0.7348876890255209  0.6794042756385869  0.5062758218440331  1.0000
  H   H773      1.0  0.8030310269336172  0.7377156194237339  0.4132690867857387  1.0000
  H   H774      1.0  0.7688546826713039  0.7412368002398735  0.3750162974660731  1.0000
  H   H775      1.0  0.7506399353418721  0.665224121674737  0.39020423784822117  1.0000
  H   H776      1.0  0.7830310317664009  0.6627492293445812  0.42792935308763913  1.0000
  H   H777      1.0  0.7839960617698771  0.7437439737280613  0.46783679461369193  1.0000
  H   H778      1.0  0.7962503750942059  0.779693179821876  0.49827953001258934  1.0000
  H   H779      1.0  0.8692632814664569  0.7496217265529721  0.5162347747341351  1.0000
  H   H780      1.0  0.8583178071073659  0.7127133118869349  0.48454567793302405  1.0000
  C   C1021     1.0  0.6161625016062763  0.6465490564576682  0.7333619142611579  1.0000
  C   C1022     1.0  0.6037757288519067  0.6254663832895141  0.7233384944019757  1.0000
  C   C1023     1.0  0.5995433192763328  0.6208685966696931  0.691670886590558  1.0000
  C   C1024     1.0  0.6076699010983876  0.636830168924993  0.6685606720081322  1.0000
  C   C1025     1.0  0.6219749817911959  0.6566274029416919  0.6793385941721026  1.0000
  C   C1026     1.0  0.6256603607471235  0.661485288560576  0.7109584486730908  1.0000
  H   H781      1.0  0.595713892700479  0.6137182529299994  0.7403458359114932  1.0000
  H   H782      1.0  0.5875392608773857  0.6061701458601326  0.6847466565782597  1.0000
  H   H783      1.0  0.6296803417655571  0.6699696665464847  0.6630021866741218  1.0000
  H   H784      1.0  0.6367402517702703  0.6776036771632457  0.7184008021035507  1.0000
  C   C1027     1.0  0.5949064097415543  0.6784649672795736  0.6168318984852212  1.0000
  C   C1028     1.0  0.6053644197136823  0.6554909042763316  0.6088308313227345  1.0000
  C   C1029     1.0  0.6160782346336899  0.6533288884805298  0.5795699903569708  1.0000
  C   C1030     1.0  0.6187363816990246  0.672997690247432  0.5602322872984868  1.0000
  C   C1031     1.0  0.608830968710365  0.6955338987377251  0.5686440329306685  1.0000
  C   C1032     1.0  0.5961457543292812  0.6979439704945384  0.5963051379970392  1.0000
  C   C1033     1.0  0.6030244986588256  0.632178900835054  0.6318144996325218  1.0000
  C   C1034     1.0  0.5745722555397312  0.6254355893881967  0.6242575382570308  1.0000
  C   C1035     1.0  0.5677122734862416  0.6120505702654753  0.5968447504048942  1.0000
  C   C1036     1.0  0.5431153770740522  0.6067803560853517  0.58984650276143  1.0000
  C   C1037     1.0  0.5243117802604106  0.6152985798662118  0.6089120119504651  1.0000
  C   C1038     1.0  0.53013998949209  0.6295489129140076  0.6354127115733954  1.0000
  C   C1039     1.0  0.554773366825813  0.6349281897371292  0.6424061838858167  1.0000
  C   C1040     1.0  0.6493723157642299  0.6187190004839958  0.6248854942891806  1.0000
  C   C1041     1.0  0.6674303064027416  0.6022862429953605  0.6162397574358938  1.0000
  C   C1042     1.0  0.661207213708266  0.5781454085480977  0.6077969721519328  1.0000
  C   C1043     1.0  0.637229998097498  0.570426820005209  0.6132265235477833  1.0000
  C   C1044     1.0  0.6192712082584572  0.586971105468289  0.6228822429166571  1.0000
  C   C1045     1.0  0.6242881718256311  0.6118884082506776  0.6266475914440345  1.0000
  C   C1046     1.0  0.6820317310979854  0.5603993334906541  0.5938171905236548  1.0000
  C   C1047     1.0  0.7334943425151892  0.603045594172235  0.5379816323037947  1.0000
  C   C1048     1.0  0.7422193684518005  0.5828290022888858  0.5535205595176005  1.0000
  C   C1049     1.0  0.7255513397288367  0.5675754912783189  0.5685222619890729  1.0000
  C   C1050     1.0  0.7005640319790346  0.5740068446326245  0.5712131610317833  1.0000
  C   C1051     1.0  0.6919247149994671  0.5924047493633458  0.5507962331575894  1.0000
  C   C1052     1.0  0.7082269453126658  0.6073413659675067  0.534982724408813  1.0000
  C   C1053     1.0  0.6726928736642704  0.5390741762062413  0.5701530375402452  1.0000
  C   C1054     1.0  0.6852208133525288  0.5166514020264529  0.5696850550980347  1.0000
  C   C1055     1.0  0.6773689813794107  0.997532783796093  0.5501085854874025  1.0000
  C   C1056     1.0  0.6565203996860719  0.5006513762693156  0.5301787413795909  1.0000
  C   C1057     1.0  0.645390751658628  0.5233496064275254  0.5284882741903816  1.0000
  C   C1058     1.0  0.6532104959684065  0.542813041967221  0.548036091814756  1.0000
  C   C1059     1.0  0.6852451264366359  0.5310788237503434  0.6419286507815203  1.0000
  C   C1060     1.0  0.6983447030321047  0.5199951511466592  0.6664857906699642  1.0000
  C   C1061     1.0  0.7210155011383212  0.5299077237551044  0.6771777568751612  1.0000
  C   C1062     1.0  0.7292013950321427  0.5520265888559823  0.6654662574922913  1.0000
  C   C1063     1.0  0.7159652133909226  0.5630454449953706  0.6410022365591851  1.0000
  C   C1064     1.0  0.694848366106919  0.5514332217518125  0.626972313954956  1.0000
  H   H785      1.0  0.5848449440898026  0.6809559203653777  0.6381871789093577  1.0000
  H   H786      1.0  0.6228822313229938  0.636163246366653  0.5703655397716572  1.0000
  H   H787      1.0  0.629173381786363  0.669774976867438  0.538874619208829  1.0000
  H   H788      1.0  0.5888474762167989  0.7164677837518469  0.6033702402751049  1.0000
  H   H789      1.0  0.5820093601166392  0.6048773609143402  0.581062281307897  1.0000
  H   H790      1.0  0.5383107603340602  0.5960824132052673  0.5686297069375396  1.0000
  H   H791      1.0  0.5159739216198034  0.6368137210963493  0.6512954626222948  1.0000
  H   H792      1.0  0.5583600201267575  0.6457828427371711  0.6633746624954729  1.0000
  H   H793      1.0  0.6551217560542297  0.6372974443980876  0.6290495829586455  1.0000
  H   H794      1.0  0.6870555363305888  0.6076226626759695  0.6153754225171172  1.0000
  H   H795      1.0  0.6326599229156953  0.5514930200377282  0.6106932104294908  1.0000
  H   H796      1.0  0.6011409838235592  0.5801494515481251  0.627442684062688  1.0000
  H   H797      1.0  0.7624891268789669  0.5793027742591275  0.5535468238383368  1.0000
  H   H798      1.0  0.7326723402363644  0.551919858028712  0.5822011977616441  1.0000
  H   H799      1.0  0.6723646125410381  0.5976330464161123  0.5504929996363611  1.0000
  H   H800      1.0  0.7004115494060992  0.6235066951764866  0.5228557712252052  1.0000
  H   H801      1.0  0.7013266609017571  0.513999211724128  0.5855701938124555  1.0000
  H   H802      1.0  0.686464607363075  0.9794854674894306  0.551502982151948  1.0000
  H   H803      1.0  0.6294881399886181  0.5259082758679886  0.5120300957508052  1.0000
  H   H804      1.0  0.6440880634298363  0.560643626457458  0.545956435145545  1.0000
  H   H805      1.0  0.6691842614418234  0.521580240790476  0.6321726494607441  1.0000
  H   H806      1.0  0.6917383620609729  0.5029670043208362  0.6760985320594513  1.0000
  H   H807      1.0  0.7467012192863391  0.5590148262376217  0.6743650868908553  1.0000
  H   H808      1.0  0.7235891403289659  0.5798662772596899  0.63192433224651  1.0000
  C   C1065     1.0  0.5578296721545758  0.862562161976888  0.43832763643369393  1.0000
  C   C1066     1.0  0.5678859481434454  0.8542978086774541  0.41046119213247567  1.0000
  C   C1067     1.0  0.5918267636063939  0.8613461970753461  0.4029113937535492  1.0000
  C   C1068     1.0  0.6062342871783063  0.8770693965026727  0.4221679161843027  1.0000
  C   C1069     1.0  0.5959321967984966  0.8839877163684797  0.45133086286368573  1.0000
  C   C1070     1.0  0.5717862456596632  0.8770744808060831  0.4589355775496064  1.0000
  H   H809      1.0  0.5576316223843351  0.8421839157537022  0.3940985203137585  1.0000
  H   H810      1.0  0.6003242901046383  0.8534550074172731  0.3818450208575121  1.0000
  H   H811      1.0  0.6055313213600733  0.8954852517193171  0.46863427489786696  1.0000
  H   H812      1.0  0.5639518594564304  0.8845495878485136  0.48004492842503016  1.0000
  C   C1071     1.0  0.6290536696099428  0.9292173088754195  0.4286695293992986  1.0000
  C   C1072     1.0  0.6437319370233342  0.908159806863317  0.4310762962449527  1.0000
  C   C1073     1.0  0.666366510879553  0.9100340306188452  0.44785919719545075  1.0000
  C   C1074     1.0  0.6740253417104944  0.9312456130948409  0.4626961507459408  1.0000
  C   C1075     1.0  0.6582331213354241  0.9514600611743417  0.4627439040563705  1.0000
  C   C1076     1.0  0.6359274735642646  0.9509747769052003  0.444879390624641  1.0000
  C   C1077     1.0  0.6342953957225098  0.8829296281489865  0.41468019710893467  1.0000
  C   C1078     1.0  0.6389040723812536  0.888984353036853  0.3778671700987228  1.0000
  C   C1079     1.0  0.6632576154679752  0.8870317956165423  0.3662105870228469  1.0000
  C   C1080     1.0  0.6681756360493896  0.8907004835425119  0.33434957830418904  1.0000
  C   C1081     1.0  0.6491508170621454  0.8978810357566374  0.31380849182287807  1.0000
  C   C1082     1.0  0.6257411747087284  0.902955752983766  0.3257874097441541  1.0000
  C   C1083     1.0  0.6208153957176824  0.8992941178673092  0.3572831056380252  1.0000
  C   C1084     1.0  0.6488013050908934  0.8541705739717996  0.4618867321341584  1.0000
  C   C1085     1.0  0.6601223222427902  0.8329713116691035  0.47405666329715285  1.0000
  C   C1086     1.0  0.6712936584420043  0.8155189981379085  0.45427485445167326  1.0000
  C   C1087     1.0  0.6716786037507668  0.8206907920069438  0.4218264800147307  1.0000
  C   C1088     1.0  0.6590835730823479  0.8410287127422643  0.40977115679676734  1.0000
  C   C1089     1.0  0.6484306969776373  0.858655439973752  0.4291542255001595  1.0000
  C   C1090     1.0  0.6852687560801749  0.7924664624465996  0.4682116581005646  1.0000
  C   C1091     1.0  0.7500559801109519  0.8355018947700342  0.500941777069042  1.0000
  C   C1092     1.0  0.7329971127699092  0.8280361887882431  0.5230443968014022  1.0000
  C   C1093     1.0  0.7125943592545796  0.8143934971197058  0.5131618492079877  1.0000
  C   C1094     1.0  0.7099972488856021  0.8060653364013048  0.4819980388216026  1.0000
  C   C1095     1.0  0.7276524387157609  0.8132453218955982  0.4603968288487535  1.0000
  C   C1096     1.0  0.7477573702852429  0.8272223575324749  0.4695057728132079  1.0000
  C   C1097     1.0  0.6907231138640475  0.7696890540274612  0.4445451174516335  1.0000
  C   C1098     1.0  0.6732768389822488  0.7622748833829626  0.42075680586110675  1.0000
  C   C1099     1.0  0.6789770074441862  0.7432813999757584  0.4001082744313291  1.0000
  C   C1100     1.0  0.7004819150837469  0.7295110341397356  0.405139085685092  1.0000
  C   C1101     1.0  0.7167730604293712  0.7357313521249943  0.42998274543611387  1.0000
  C   C1102     1.0  0.7124569075509285  0.7560752510124745  0.44872591977974874  1.0000
  C   C1103     1.0  0.6814223872056365  0.7659585525517152  0.5181663961410142  1.0000
  C   C1104     1.0  0.6676490180765773  0.7547775991915892  0.5409924785263837  1.0000
  C   C1105     1.0  0.6418550415282366  0.7551762012113673  0.5391874033921431  1.0000
  C   C1106     1.0  0.6294886126585274  0.7672234214740643  0.514510880227625  1.0000
  C   C1107     1.0  0.6437074986897109  0.778674921779691  0.4921527802844662  1.0000
  C   C1108     1.0  0.6693840756029288  0.7792454183352693  0.4940891770223882  1.0000
  H   H813      1.0  0.6114850096436253  0.9280177440661553  0.4164303559361811  1.0000
  H   H814      1.0  0.6798794032108002  0.8950301293356562  0.44713334687692013  1.0000
  H   H815      1.0  0.6920224491655363  0.9311565853679514  0.475587156896423  1.0000
  H   H816      1.0  0.6233910733097827  0.96698922393152  0.44312923179739455  1.0000
  H   H817      1.0  0.6781994063945942  0.8804819393836044  0.38258042183812857  1.0000
  H   H818      1.0  0.6869464554397272  0.8884599623002973  0.32584710138219114  1.0000
  H   H819      1.0  0.6109117146482568  0.9091494091802469  0.31021505521304743  1.0000
  H   H820      1.0  0.6021826274976272  0.9037686899362433  0.3664708425646885  1.0000
  H   H821      1.0  0.6415378136576764  0.8680734607123058  0.4770078178817049  1.0000
  H   H822      1.0  0.6615683188891255  0.8313240331448873  0.49965005002192014  1.0000
  H   H823      1.0  0.6811408707432092  0.8094567760206113  0.4045182926495066  1.0000
  H   H824      1.0  0.6593129124787674  0.8422015503596944  0.38394139118537346  1.0000
  H   H825      1.0  0.7347106931661268  0.8349748562219469  0.5471717568959794  1.0000
  H   H826      1.0  0.6993265371692656  0.8112960263656385  0.5313940631300254  1.0000
  H   H827      1.0  0.726211816774876  0.8070683653727369  0.4356415127220265  1.0000
  H   H828      1.0  0.7605186880123929  0.8326305212174462  0.45121625491865464  1.0000
  H   H829      1.0  0.6555933404621568  0.7722939924491385  0.41669538680906565  1.0000
  H   H830      1.0  0.6668539333077242  0.74003687206252  0.379383337704864  1.0000
  H   H831      1.0  0.7342205643425302  0.7263548135179843  0.43330876350753844  1.0000
  H   H832      1.0  0.7258045814441028  0.7613378995459407  0.467421340812954  1.0000
  H   H833      1.0  0.7017717000927753  0.7642331706729212  0.5211748546980818  1.0000
  H   H834      1.0  0.6771969689110061  0.7454227870292884  0.5592414061070717  1.0000
  H   H835      1.0  0.6090105477389856  0.7659039673883484  0.5113400604150967  1.0000
  H   H836      1.0  0.6336990495961734  0.7872687589344031  0.47241394941837317  1.0000
  C   C1109     1.0  0.880196889195856  0.8691788380958015  0.7122645017133415  1.0000
  C   C1110     1.0  0.8835726344736073  0.8929051415236542  0.7019497866605386  1.0000
  C   C1111     1.0  0.8847797735558632  0.8972821523562237  0.670138918917832  1.0000
  C   C1112     1.0  0.8812682180057982  0.8786610150417076  0.6464676029378578  1.0000
  C   C1113     1.0  0.8751277611967347  0.8556175136548212  0.6573625207123809  1.0000
  C   C1114     1.0  0.8753435614258647  0.8508348722660446  0.6896652475525129  1.0000
  H   H837      1.0  0.8867277057058462  0.9080769455298453  0.7186586699798707  1.0000
  H   H838      1.0  0.8890888698136236  0.9154334956763838  0.6634080898127737  1.0000
  H   H839      1.0  0.8706319260491987  0.8413363425703873  0.6403527915373419  1.0000
  H   H840      1.0  0.8709947988783315  0.8322791692098499  0.6954911514249293  1.0000
  C   C1115     1.0  0.8900623783016733  0.8439944662590909  0.5808808187282645  1.0000
  C   C1116     1.0  0.8749630463658331  0.865073249361488  0.5839441935923262  1.0000
  C   C1117     1.0  0.8533456187284773  0.8665018906771774  0.5649694156931074  1.0000
  C   C1118     1.0  0.8490904854695923  0.8488462179879811  0.5414341966478579  1.0000
  C   C1119     1.0  0.863601683061233  0.8282341113526868  0.5394118439511625  1.0000
  C   C1120     1.0  0.8843280196917456  0.8254334229062235  0.5596640229043741  1.0000
  C   C1121     1.0  0.8831971411240496  0.8863277549744043  0.6094181970410192  1.0000
  C   C1122     1.0  0.9129171382131108  0.8924669376586192  0.6023244427766957  1.0000
  C   C1123     1.0  0.9207010193252466  0.8946151924412593  0.570647284303192  1.0000
  C   C1124     1.0  0.9452862577875469  0.8999650589155198  0.564353397988565  1.0000
  C   C1125     1.0  0.9636402524490468  0.9005415764368256  0.5886884849835111  1.0000
  C   C1126     1.0  0.9565383892657461  0.8984729954775645  0.6195633878417969  1.0000
  C   C1127     1.0  0.9318450376242416  0.8946153864195926  0.6261294680258729  1.0000
  C   C1128     1.0  0.8430521909883307  0.9128765290958051  0.6198308063802029  1.0000
  C   C1129     1.0  0.8261587317632043  0.9312749445520007  0.6129400036852054  1.0000
  C   C1130     1.0  0.8294175641765853  0.9471454834084085  0.5878145994026487  1.0000
  C   C1131     1.0  0.851833114866813  0.9447897509905583  0.5718315664018472  1.0000
  C   C1132     1.0  0.8692572129754269  0.9271797998673387  0.5793574881255589  1.0000
  C   C1133     1.0  0.8653062727359498  0.910162112874379  0.6030741697504411  1.0000
  C   C1134     1.0  0.8061333623107845  0.9637605240872575  0.5734336899667617  1.0000
  C   C1135     1.0  0.7744626486537955  0.9014765959094473  0.5183144314033461  1.0000
  C   C1136     1.0  0.7675528445122473  0.905614350138161  0.5492275369099756  1.0000
  C   C1137     1.0  0.7759032608543437  0.9261295870104672  0.56577883430489  1.0000
  C   C1138     1.0  0.7926748894548702  0.9426490097514741  0.5524270087087617  1.0000
  C   C1139     1.0  0.7998833081624699  0.9373657794508884  0.5216022468264271  1.0000
  C   C1140     1.0  0.7905522111349527  0.9173459745277153  0.5043442004371541  1.0000
  C   C1141     1.0  0.8131190078763221  0.9873907660200841  0.5516701187384518  1.0000
  C   C1142     1.0  0.8346685953045356  0.5004975166026419  0.5579234147392136  1.0000
  C   C1143     1.0  0.8421499214111767  0.5183471748845012  0.5374444075614612  1.0000
  C   C1144     1.0  0.8272869333375523  0.5251724575393217  0.5120778490612348  1.0000
  C   C1145     1.0  0.8041687906426944  0.5144385667775493  0.5079973286850218  1.0000
  C   C1146     1.0  0.7970435475585519  0.9954920765750045  0.527356520733199  1.0000
  C   C1147     1.0  0.7644942300289725  0.9796692178027391  0.5975037460888233  1.0000
  C   C1148     1.0  0.750821757809642  0.9864301013364764  0.6237394148388692  1.0000
  C   C1149     1.0  0.7622389457278349  0.99068364817941  0.6531100884186212  1.0000
  C   C1150     1.0  0.7882834468318262  0.9911186674096037  0.655130053449795  1.0000
  C   C1151     1.0  0.8022738972624338  0.9851233700112556  0.6286198031647787  1.0000
  C   C1152     1.0  0.7903384847340704  0.9766824503086955  0.6006196495943575  1.0000
  H   H841      1.0  0.9080577664828902  0.8421906301918951  0.5935426089886844  1.0000
  H   H842      1.0  0.8389871485182914  0.880476735120276  0.5673236538972888  1.0000
  H   H843      1.0  0.8332561371951663  0.8507515548964244  0.5254225116607986  1.0000
  H   H844      1.0  0.8976919159044139  0.8106379687252572  0.5566006480403124  1.0000
  H   H845      1.0  0.9073260918175414  0.892410684071383  0.5511424446582043  1.0000
  H   H846      1.0  0.95103873786177  0.9010819593585325  0.5399777206797537  1.0000
  H   H847      1.0  0.9706319023328356  0.8985188654347058  0.6383686414889903  1.0000
  H   H848      1.0  0.9285004542329106  0.8907185786463244  0.6509707401113731  1.0000
  H   H849      1.0  0.8372150628970589  0.8994832864101365  0.637064976114261  1.0000
  H   H850      1.0  0.8087201519031962  0.9316516908445671  0.6252770714347037  1.0000
  H   H851      1.0  0.8548209538781073  0.9546367454259377  0.5500584445114514  1.0000
  H   H852      1.0  0.8858426065845679  0.9263994363163875  0.5651747549279549  1.0000
  H   H853      1.0  0.7543489920380247  0.8937807788711312  0.5597714678528407  1.0000
  H   H854      1.0  0.7711353911300023  0.9280587849805104  0.5907681416527221  1.0000
  H   H855      1.0  0.8134047172428912  0.9487560228040625  0.5101295139957054  1.0000
  H   H856      1.0  0.7947714130104413  0.9150191573346206  0.479736919572759  1.0000
  H   H857      1.0  0.8465352805183254  0.9956575127784385  0.5786388008035928  1.0000
  H   H858      1.0  0.8600791888036471  0.5266408478502645  0.5424943201393959  1.0000
  H   H859      1.0  0.7914423890997616  0.5200192919033979  0.48885780186482075  1.0000
  H   H860      1.0  0.7798281958328594  0.9862070691851912  0.5228939738735489  1.0000
  H   H861      1.0  0.7545628148323423  0.9760146585188882  0.575188624125051  1.0000
  H   H862      1.0  0.7307816332518652  0.9877000303355017  0.6217218374732167  1.0000
  H   H863      1.0  0.7981883879204767  0.9959152561064947  0.6773568317892724  1.0000
  H   H864      1.0  0.8226593585260448  0.9842293098583953  0.6311292396278565  1.0000
  C   C1153     1.0  0.03638687225141597  0.6335814786299038  0.08304611080232727  1.0000
  C   C1154     1.0  0.04719352427335926  0.6431373495106593  0.11125017100828306  1.0000
  C   C1155     1.0  0.07253756874592292  0.6401324163634322  0.11753331282806334  1.0000
  C   C1156     1.0  0.08694045619658892  0.6265152194018476  0.09654644919389166  1.0000
  C   C1157     1.0  0.076371760207836  0.6200646104147868  0.0668044936255492  1.0000
  C   C1158     1.0  0.0512565278595675  0.6225661990143874  0.06067463993224807  1.0000
  H   H865      1.0  0.03472729406284396  0.6521807701082585  0.1277179001099455  1.0000
  H   H866      1.0  0.07983408069353902  0.6474873774290674  0.1397713131954917  1.0000
  H   H867      1.0  0.08800689246112024  0.6122967758528504  0.04859973785700852  1.0000
  H   H868      1.0  0.043180429541951504  0.6144675416567132  0.039379528679253026  1.0000
  C   C1159     1.0  0.11596817886614876  0.5767337992059214  0.0809743334293372  1.0000
  C   C1160     1.0  0.12880946354039713  0.5986074526685254  0.08651753770401018  1.0000
  C   C1161     1.0  0.1539206998027562  0.5989867903854799  0.07813205639256485  1.0000
  C   C1162     1.0  0.16429650347875654  0.5790085628877548  0.06184173083914855  1.0000
  C   C1163     1.0  0.15079513322873186  0.5581354763535324  0.056038748555738316  1.0000
  C   C1164     1.0  0.1265272238449982  0.5573709210534175  0.06536568638230406  1.0000
  C   C1165     1.0  0.1156169685695403  0.6208181212874178  0.10526238341351013  1.0000
  C   C1166     1.0  0.12090252063221586  0.6105310547811917  0.14033695115753084  1.0000
  C   C1167     1.0  0.14420004604617465  0.613398328985867  0.15607381584306756  1.0000
  C   C1168     1.0  0.147348151859313  0.6103306700549797  0.18838633211183772  1.0000
  C   C1169     1.0  0.1275381532776135  0.6026068775621478  0.20564437850111073  1.0000
  C   C1170     1.0  0.10537271837242176  0.5970417375598097  0.1908456275989643  1.0000
  C   C1171     1.0  0.10216427554848459  0.6010776075257042  0.1586675368990536  1.0000
  C   C1172     1.0  0.13435515981531937  0.6519501989121759  0.06749763292643547  1.0000
  C   C1173     1.0  0.15219662121821909  0.6693516763784133  0.062441273651592716  1.0000
  C   C1174     1.0  0.16345244996175604  0.6823306314425184  0.08763401010185522  1.0000
  C   C1175     1.0  0.15307683512479403  0.6794384238880375  0.11757509697468929  1.0000
  C   C1176     1.0  0.13495821829654228  0.6631324309913236  0.12253929236040284  1.0000
  C   C1177     1.0  0.12823318487590893  0.6465501530975772  0.09832621507360445  1.0000
  C   C1178     1.0  0.1899844717510824  0.6957067769619651  0.08119423742386571  1.0000
  C   C1179     1.0  0.23497977866686046  0.6336316940048701  0.04046352882600593  1.0000
  C   C1180     1.0  0.23299902800951133  0.6560793851150113  0.024752450928101202  1.0000
  C   C1181     1.0  0.21922474388745178  0.6754552603159467  0.03727718918758799  1.0000
  C   C1182     1.0  0.20756104008745235  0.6737370748664977  0.0663042776987987  1.0000
  C   C1183     1.0  0.21015977385479065  0.6515081384012131  0.08243295829641065  1.0000
  C   C1184     1.0  0.22442068406321658  0.6320592503598726  0.07020858835952631  1.0000
  C   C1185     1.0  0.20338289086517328  0.706026399254315  0.11378014139484555  1.0000
  C   C1186     1.0  0.1918691436915104  0.7252400790183862  0.13131372438529762  1.0000
  C   C1187     1.0  0.20396832659706832  0.7371464376836909  0.1561478334742335  1.0000
  C   C1188     1.0  0.22824747121729722  0.7304968486974502  0.16510396684531306  1.0000
  C   C1189     1.0  0.2393453731206007  0.7110823372134123  0.14925774707889244  1.0000
  C   C1190     1.0  0.22718772500184775  0.6989406510031866  0.124309985111134  1.0000
  C   C1191     1.0  0.20554011917976714  0.733477860390883  0.052719177181221676  1.0000
  C   C1192     1.0  0.20301465126579418  0.7544308879481232  0.035743352856587855  1.0000
  C   C1193     1.0  0.17960933113481606  0.7624775205442508  0.026612681135887946  1.0000
  C   C1194     1.0  0.15891062528460176  0.7483103900373677  0.03294381503265003  1.0000
  C   C1195     1.0  0.16162715187986382  0.7277435055259566  0.05101223509991408  1.0000
  C   C1196     1.0  0.18523755540040773  0.7188498935841856  0.05955028823818212  1.0000
  H   H869      1.0  0.09716760739206891  0.5743988358804771  0.08944075660196077  1.0000
  H   H870      1.0  0.16626701590008827  0.6141326231987354  0.0852286758555141  1.0000
  H   H871      1.0  0.18322414516484833  0.5796876546609636  0.054251342146356775  1.0000
  H   H872      1.0  0.11608414975896983  0.5407976044419459  0.06185295286709951  1.0000
  H   H873      1.0  0.1602668536271085  0.6193756929365513  0.1435858476326116  1.0000
  H   H874      1.0  0.16505836268401933  0.6158186916965147  0.20045550378982568  1.0000
  H   H875      1.0  0.08974687946080824  0.5909105367283334  0.20460025236856658  1.0000
  H   H876      1.0  0.08441906516660169  0.5975877985061333  0.14798058479145165  1.0000
  H   H877      1.0  0.1277030987342473  0.6406405433121191  0.04794766640309174  1.0000
  H   H878      1.0  0.15891030774359033  0.6714999869752405  0.037945974300155144  1.0000
  H   H879      1.0  0.16187504490192245  0.6875054207944205  0.13840341961823457  1.0000
  H   H880      1.0  0.12972786632698735  0.6608745326734466  0.14714275295996357  1.0000
  H   H881      1.0  0.24132267944078695  0.6581869781717461  0.001720881272622005  1.0000
  H   H882      1.0  0.21788084158330098  0.6913696058781338  0.02251644992054359  1.0000
  H   H883      1.0  0.20127209782290034  0.6495770599083422  0.10564393236384297  1.0000
  H   H884      1.0  0.22544472964930687  0.6160706341454115  0.08475162028432197  1.0000
  H   H885      1.0  0.1732491736613209  0.7319749379681215  0.12492289885049847  1.0000
  H   H886      1.0  0.1940663904239636  0.751743875280817  0.16838247037286022  1.0000
  H   H887      1.0  0.2587076081940489  0.7057745602348565  0.15602821143160725  1.0000
  H   H888      1.0  0.2382853159344031  0.6850448857077235  0.1125442857209264  1.0000
  H   H889      1.0  0.22441638182636353  0.7270546129434025  0.05895265555815514  1.0000
  H   H890      1.0  0.2189007041920069  0.7654341473478777  0.029656238376121247  1.0000
  H   H891      1.0  0.1396132117040993  0.7540602589905387  0.024636410383757166  1.0000
  H   H892      1.0  0.14451003826791914  0.7190619426992633  0.05905389257626598  1.0000
  C   C1197     1.0  0.3785903660718421  0.6298114656700309  0.8270252573378598  1.0000
  C   C1198     1.0  0.39827080088046735  0.6139139930661321  0.8341309499297908  1.0000
  C   C1199     1.0  0.40651112900017794  0.6109773324879115  0.8650774827537209  1.0000
  C   C1200     1.0  0.3968730713029504  0.6254611553996262  0.8900620147705103  1.0000
  C   C1201     1.0  0.37606759553498165  0.6403237831502302  0.881939176666428  1.0000
  C   C1202     1.0  0.367158439032172  0.6418591561780449  0.8512003707428667  1.0000
  H   H893      1.0  0.40744190347185194  0.6032498629192735  0.8158462073662803  1.0000
  H   H894      1.0  0.4219686601664739  0.5976600547501952  0.8690362321883384  1.0000
  H   H895      1.0  0.3672072105810151  0.6504224443919258  0.9008805272483459  1.0000
  H   H896      1.0  0.3510802104593616  0.6535360789880797  0.8463223700824786  1.0000
  C   C1203     1.0  0.4082095795355852  0.6701853657774205  0.936967703940027  1.0000
  C   C1204     1.0  0.4050914756534934  0.6464890128205886  0.948366419139583  1.0000
  C   C1205     1.0  0.4015079626115243  0.6442995641515915  0.9806739213107579  1.0000
  C   C1206     1.0  0.3989490694339724  0.6643815511176446  0.9999805952512937  1.0000
  C   C1207     1.0  0.39888483601248204  0.6873309123845872  0.9877700632406029  1.0000
  C   C1208     1.0  0.40416419931003117  0.6904612782101202  0.9565704378713956  1.0000
  C   C1209     1.0  0.40679724221878044  0.6222811629908066  0.9262829007313944  1.0000
  C   C1210     1.0  0.43573054640771913  0.6157515173413344  0.9304278880766875  1.0000
  C   C1211     1.0  0.4452219511143873  0.6033127647252614  0.9575541560662462  1.0000
  C   C1212     1.0  0.4703745333954275  0.6013934545418681  0.9635853991735102  1.0000
  C   C1213     1.0  0.48722723736002227  0.6114359525454575  0.9435719867724467  1.0000
  C   C1214     1.0  0.4786664896082433  0.6246409211448605  0.9174891286157757  1.0000
  C   C1215     1.0  0.45334841323826436  0.6270478967812048  0.9115892071121933  1.0000
  C   C1216     1.0  0.3638306156047631  0.6081405844554628  0.944598682946684  1.0000
  C   C1217     1.0  0.3457655293662002  0.5907198417330626  0.9500664369908781  1.0000
  C   C1218     1.0  0.351561576420413  0.565985768051919  0.9511265604824163  1.0000
  C   C1219     1.0  0.37595113003821085  0.558838431568593  0.943216224609746  1.0000
  C   C1220     1.0  0.3939609642794642  0.5763854668146504  0.9354491486683646  1.0000
  C   C1221     1.0  0.38833522217600136  0.6013583710436409  0.9372255718163472  1.0000
  C   C1222     1.0  0.33023667744688373  0.5467506892712475  0.9588864734272332  1.0000
  C   C1223     1.0  0.27473720548717795  0.5729488915349653  0.026990648587938572  1.0000
  C   C1224     1.0  0.2683105278814981  0.5556633785585368  0.004821699507391493  1.0000
  C   C1225     1.0  0.2853612993070778  0.5467095965758694  0.9831236661357986  1.0000
  C   C1226     1.0  0.3096762454913628  0.5554516876991485  0.983744459171384  1.0000
  C   C1227     1.0  0.3170210988383736  0.5706889031872228  0.009233699487951863  1.0000
  C   C1228     1.0  0.2993467114250376  0.5797916231932333  0.02957935554632952  1.0000
  C   C1229     1.0  0.3398468229340838  0.5226955454558513  0.9768584318074295  1.0000
  C   C1230     1.0  0.3293269268808897  0.9991138958025758  0.9721929333784534  1.0000
  C   C1231     1.0  0.3371033982523298  0.9794960865679275  0.9897588011686035  1.0000
  C   C1232     1.0  0.3558917441364789  0.9818023046355838  0.012991908895419988  1.0000
  C   C1233     1.0  0.3662844973026463  0.5046073668657537  0.018086828968434686  1.0000
  C   C1234     1.0  0.35795958142365497  0.5245702906955994  0.0009803086084859713  1.0000
  C   C1235     1.0  0.330179921880164  0.5248952948670393  0.9034615936770681  1.0000
  C   C1236     1.0  0.3188238647902402  0.51826682441184  0.8751200039370748  1.0000
  C   C1237     1.0  0.29642834450917593  0.5281066893892187  0.8651443373883224  1.0000
  C   C1238     1.0  0.28607462537987227  0.5470695699287922  0.8829014058715853  1.0000
  C   C1239     1.0  0.29737295759330695  0.5540513499885573  0.911161814983848  1.0000
  C   C1240     1.0  0.31850288262147275  0.5420639081837737  0.9233054818261063  1.0000
  H   H897      1.0  0.41223455468398035  0.672788702646724  0.9116106961018866  1.0000
  H   H898      1.0  0.4009947006801649  0.6266638782533662  0.9924167981804278  1.0000
  H   H899      1.0  0.3981447274798768  0.6626963482627501  0.02515787653364887  1.0000
  H   H900      1.0  0.4041900715484506  0.7086796327501605  0.9460002426077941  1.0000
  H   H901      1.0  0.4333492778157686  0.595835305048379  0.9746856561828807  1.0000
  H   H902      1.0  0.47709923560358425  0.5911011765067761  0.9840248462954192  1.0000
  H   H903      1.0  0.49185391145682755  0.6318906130494353  0.9008829149138673  1.0000
  H   H904      1.0  0.4476294696393433  0.6373583572675587  0.8912534598657297  1.0000
  H   H905      1.0  0.3582452140575465  0.6273841359707937  0.9446368855950278  1.0000
  H   H906      1.0  0.32736582925046337  0.5980171346745701  0.9540872657290542  1.0000
  H   H907      1.0  0.3805751456077846  0.5396069886400019  0.9406685854983244  1.0000
  H   H908      1.0  0.4124934975041326  0.5699333409573872  0.9297211390823287  1.0000
  H   H909      1.0  0.24908777715227748  0.5505199599096545  0.0009483735821361473  1.0000
  H   H910      1.0  0.2790171688972135  0.5329308003730354  0.9651158927727803  1.0000
  H   H911      1.0  0.3356061202438208  0.5784911392204177  0.01072589493225735  1.0000
  H   H912      1.0  0.3038820244319754  0.5936181372830609  0.04709789624399624  1.0000
  H   H913      1.0  0.3141757279598246  0.996755130944874  0.9550829222515123  1.0000
  H   H914      1.0  0.3277653716652021  0.9619456181727334  0.9862375675641425  1.0000
  H   H915      1.0  0.38152821460916886  0.5067631175781498  0.03503302236394691  1.0000
  H   H916      1.0  0.3667374780747088  0.5428629204820917  0.006460831887888992  1.0000
  H   H917      1.0  0.34849582181797095  0.5170297417747048  0.9099441055678921  1.0000
  H   H918      1.0  0.32687258481907616  0.5037248601988212  0.8610948566638887  1.0000
  H   H919      1.0  0.2673180436089105  0.5538054103831022  0.8757933256141329  1.0000
  H   H920      1.0  0.2882495454522736  0.5685617235620145  0.924869402742677  1.0000
  C   C1241     1.0  0.12919499613133037  0.8686739438201996  0.804717298370652  1.0000
  C   C1242     1.0  0.12445142958117435  0.8900464965060331  0.8219634064323177  1.0000
  C   C1243     1.0  0.1304028605621212  0.8916337704247702  0.854094221354903  1.0000
  C   C1244     1.0  0.13746027906096767  0.87057364569508  0.8708842853019655  1.0000
  C   C1245     1.0  0.14383258507341287  0.8501452981783266  0.8535164062987043  1.0000
  C   C1246     1.0  0.1387383352232005  0.8488788433193254  0.8208913446131721  1.0000
  H   H921      1.0  0.11538610010358695  0.9052330918510907  0.8101038717871157  1.0000
  H   H922      1.0  0.12624118448618307  0.9089364858382615  0.8659489806690619  1.0000
  H   H923      1.0  0.15227228268851134  0.8336292764844736  0.8646572536219401  1.0000
  H   H924      1.0  0.14513339580171783  0.8324347818534572  0.8076684529552041  1.0000
  C   C1247     1.0  0.13743390074997872  0.8256808955960012  0.9210682392324774  1.0000
  C   C1248     1.0  0.1509764412549444  0.8470532440882942  0.9245136405799761  1.0000
  C   C1249     1.0  0.1721023184509723  0.8461408761902157  0.9438417929763742  1.0000
  C   C1250     1.0  0.18040677054038448  0.8253420741259245  0.9582418037364332  1.0000
  C   C1251     1.0  0.1661313827572116  0.8041923298809809  0.9555986580041524  1.0000
  C   C1252     1.0  0.14400261349887813  0.8046761329492689  0.9371921444990463  1.0000
  C   C1253     1.0  0.13913649300868022  0.8715420382128795  0.9085998498792976  1.0000
  C   C1254     1.0  0.11101002153977763  0.8739872877083062  0.922997472973835  1.0000
  C   C1255     1.0  0.10786100183027544  0.8704597908277054  0.955632085321453  1.0000
  C   C1256     1.0  0.0844094560342315  0.8683528547048489  0.9683869945372107  1.0000
  C   C1257     1.0  0.06336016828519636  0.8699547164970742  0.9495769655589743  1.0000
  C   C1258     1.0  0.0654700357595687  0.8747903597052452  0.9177374458300098  1.0000
  C   C1259     1.0  0.08898310779808798  0.8761949054401426  0.9048010740346194  1.0000
  C   C1260     1.0  0.17975117051763345  0.8960591139830081  0.9024922014753463  1.0000
  C   C1261     1.0  0.19513680694878593  0.9155670628189588  0.9083706339892353  1.0000
  C   C1262     1.0  0.1897357019930479  0.9332082361744524  0.9317602054376745  1.0000
  C   C1263     1.0  0.16700747230204055  0.9307862798380894  0.9470508154372462  1.0000
  C   C1264     1.0  0.15145427458405153  0.9114802873511507  0.9407640921191838  1.0000
  C   C1265     1.0  0.15707929029970502  0.8940649481958726  0.9174628642950394  1.0000
  C   C1266     1.0  0.21061250247925437  0.9527782184951913  0.9419507618833604  1.0000
  C   C1267     1.0  0.25231033174737694  0.9074237758740387  0.011675421756840373  1.0000
  C   C1268     1.0  0.26108464208487064  0.9105154820553885  0.9816982298194739  1.0000
  C   C1269     1.0  0.24696707003050034  0.9233329941482153  0.9598654162910409  1.0000
  C   C1270     1.0  0.22474693534337528  0.9351272619641502  0.9675871265875142  1.0000
  C   C1271     1.0  0.21596421994755313  0.9308207929010424  0.9982255705527279  1.0000
  C   C1272     1.0  0.22904626281917895  0.9166266803911107  0.019744059853585016  1.0000
  C   C1273     1.0  0.20085931794490258  0.9776630297983852  0.9581152574637944  1.0000
  C   C1274     1.0  0.17836903324682632  0.9886334322405278  0.9478554587179857  1.0000
  C   C1275     1.0  0.16887855820913286  0.5080013979464763  0.9643566151369489  1.0000
  C   C1276     1.0  0.18251437025229372  0.5196980337502596  0.9882117813620771  1.0000
  C   C1277     1.0  0.20570494910889445  0.5103147683057535  0.9970392947533622  1.0000
  C   C1278     1.0  0.21403209616236898  0.9887158702782927  0.9834412256501558  1.0000
  C   C1279     1.0  0.2522870568242276  0.9723841234439511  0.9216341159610688  1.0000
  C   C1280     1.0  0.2675559598467095  0.9805555638294255  0.8980010026294384  1.0000
  C   C1281     1.0  0.2582587733041845  0.9824628997041953  0.8670449191434222  1.0000
  C   C1282     1.0  0.23369485033579604  0.9751826077078288  0.8601708301070751  1.0000
  C   C1283     1.0  0.21923500337144666  0.9654989699298012  0.8832261283825068  1.0000
  C   C1284     1.0  0.22813530218931247  0.9638853827325747  0.9145809520106104  1.0000
  H   H925      1.0  0.12028085020504677  0.8251733288993532  0.905877911184808  1.0000
  H   H926      1.0  0.18394416204971362  0.8617130764880799  0.9479843926561459  1.0000
  H   H927      1.0  0.19742241154596357  0.8257768654576719  0.9716700346292487  1.0000
  H   H928      1.0  0.1326370657360903  0.7883382427356506  0.9341550339557212  1.0000
  H   H929      1.0  0.12461368245902062  0.868629168693666  0.9705573824962381  1.0000
  H   H930      1.0  0.08405960635485421  0.8653332606359664  0.9940567865586655  1.0000
  H   H931      1.0  0.04953178773351996  0.8773383101136936  0.9020027300434424  1.0000
  H   H932      1.0  0.0889324782212379  0.8782142514742961  0.8798571323316954  1.0000
  H   H933      1.0  0.185683910639361  0.8814343672339393  0.8860865516772424  1.0000
  H   H934      1.0  0.21305631727074506  0.9160453917581772  0.8971963593486989  1.0000
  H   H935      1.0  0.16261086865079982  0.9441307353184727  0.9657056461565863  1.0000
  H   H936      1.0  0.13537918341944272  0.9109634335640238  0.9549802526340885  1.0000
  H   H937      1.0  0.2788305510216699  0.9021961674166121  0.975375691518589  1.0000
  H   H938      1.0  0.25413467206741575  0.923607430696108  0.9364853955046878  1.0000
  H   H939      1.0  0.1981729893134688  0.9388677877464919  0.0059353544599211995  1.0000
  H   H940      1.0  0.22318990991011886  0.9135816470229466  0.04376638654187219  1.0000
  H   H941      1.0  0.16830062403033036  0.9816290171365551  0.9271448479846495  1.0000
  H   H942      1.0  0.15103513392623721  0.5160009567598085  0.9572294335553247  1.0000
  H   H943      1.0  0.21708456118530173  0.51884299857806  0.015296197136891987  1.0000
  H   H944      1.0  0.23142103280155726  0.9806151456747205  0.9928079932994676  1.0000
  H   H945      1.0  0.2591288966817233  0.9713470548834484  0.9460623219113526  1.0000
  H   H946      1.0  0.2863958957097953  0.9861301678715869  0.9036287302635718  1.0000
  H   H947      1.0  0.22616992957608245  0.9756241526340658  0.8357259104981408  1.0000
  H   H948      1.0  0.19979857874011206  0.9615549106835509  0.8761944534217418  1.0000
  C   C1285     1.0  0.4702370243937696  0.8596350902148919  0.11662122459885717  1.0000
  C   C1286     1.0  0.45918407028050784  0.8490517399336238  0.142342828962128  1.0000
  C   C1287     1.0  0.435157169723399  0.8556854925573196  0.15009462384417194  1.0000
  C   C1288     1.0  0.4215893253089658  0.8732561006538803  0.13293041270989317  1.0000
  C   C1289     1.0  0.43267612650987314  0.882497386931469  0.10651423644642323  1.0000
  C   C1290     1.0  0.4563988855868581  0.8759933515464106  0.09848977016182597  1.0000
  H   H949      1.0  0.4689118210308307  0.8354043028297146  0.15656639124014932  1.0000
  H   H950      1.0  0.42747516308143346  0.8460744989197221  0.17002590055129638  1.0000
  H   H951      1.0  0.422251780878319  0.8933941765819476  0.09021412146436884  1.0000
  H   H952      1.0  0.46382311989925223  0.8832557261396607  0.07633390548833663  1.0000
  C   C1291     1.0  0.3935821002693721  0.9231789638440692  0.12309633472656462  1.0000
  C   C1292     1.0  0.38019796979159276  0.901446692071316  0.1248149763689275  1.0000
  C   C1293     1.0  0.35646004564029615  0.9012112093180128  0.11023278672957952  1.0000
  C   C1294     1.0  0.3479616208817979  0.9203512652692959  0.09130361324182115  1.0000
  C   C1295     1.0  0.36273086708568714  0.9404429899205589  0.08772378632546296  1.0000
  C   C1296     1.0  0.3850413698804039  0.9425951125013862  0.10514085123846668  1.0000
  C   C1297     1.0  0.39297097521548  0.8795643026438715  0.14292995591386046  1.0000
  C   C1298     1.0  0.3898180432279399  0.8880077741711859  0.17939844278932243  1.0000
  C   C1299     1.0  0.36700192513426555  0.8882112589140612  0.19459235233527414  1.0000
  C   C1300     1.0  0.36538964625539244  0.8909942460811558  0.22718207657108835  1.0000
  C   C1301     1.0  0.3870766788544305  0.891691886773019  0.24541858829106478  1.0000
  C   C1302     1.0  0.40976078107991765  0.8943430316646325  0.23069027352180208  1.0000
  C   C1303     1.0  0.41084630712546366  0.8936376931239297  0.19813779686812297  1.0000
  C   C1304     1.0  0.37824388093778405  0.8468450342190134  0.10146026483710192  1.0000
  C   C1305     1.0  0.3646572185853413  0.8274925908321583  0.09043354792579304  1.0000
  C   C1306     1.0  0.350049018464814  0.8145348172241751  0.11157751995127826  1.0000
  C   C1307     1.0  0.3530646895660696  0.819953306815834  0.143979573677104  1.0000
  C   C1308     1.0  0.3683637974262737  0.8386522372798834  0.15457579449488965  1.0000
  C   C1309     1.0  0.37936621191370906  0.8542060059363336  0.13333918104717093  1.0000
  C   C1310     1.0  0.32936286604173964  0.7967075830105145  0.09626446589580462  1.0000
  C   C1311     1.0  0.27857668697076216  0.8490379176948448  0.05149884133319215  1.0000
  C   C1312     1.0  0.29467284059142695  0.8353134127469721  0.03281129959620777  1.0000
  C   C1313     1.0  0.3114771861533565  0.8194239035828673  0.04696275437548035  1.0000
  C   C1314     1.0  0.3119501502933303  0.8159057766002352  0.0792752706442505  1.0000
  C   C1315     1.0  0.2970569124577224  0.8316554729812574  0.09758651629504929  1.0000
  C   C1316     1.0  0.28052821072258255  0.8476496083173125  0.08406779287896947  1.0000
  C   C1317     1.0  0.31349117155494044  0.7806132721026025  0.12048112468088523  1.0000
  C   C1318     1.0  0.3254441795814126  0.7677113387109717  0.1447001711314873  1.0000
  C   C1319     1.0  0.3121961193079859  0.7559705284805252  0.16756851519658694  1.0000
  C   C1320     1.0  0.2861681471452348  0.7551798897332099  0.16572667001331562  1.0000
  C   C1321     1.0  0.274632530606018  0.7651431571730583  0.13892536330123056  1.0000
  C   C1322     1.0  0.28773592620831584  0.777233503299424  0.11666873914273466  1.0000
  C   C1323     1.0  0.32563221480414045  0.7633395004784728  0.051431270398934206  1.0000
  C   C1324     1.0  0.3346656666160492  0.7437076961328601  0.03409061078261791  1.0000
  C   C1325     1.0  0.35851801369153036  0.7351270743841524  0.039235552448307655  1.0000
  C   C1326     1.0  0.37338889478147536  0.7462130454929875  0.06304463672887126  1.0000
  C   C1327     1.0  0.364506569510085  0.7659145992375379  0.0803587932578991  1.0000
  C   C1328     1.0  0.34049761594610767  0.7752435794203794  0.07454482771309005  1.0000
  H   H953      1.0  0.41189516956722  0.9254408499083993  0.13472354951652626  1.0000
  H   H954      1.0  0.3434268307503227  0.8866976738855098  0.11338044618654945  1.0000
  H   H955      1.0  0.32963093593405246  0.9185878092163319  0.07924303715971048  1.0000
  H   H956      1.0  0.3952570944892804  0.959266764960671  0.1046621243014095  1.0000
  H   H957      1.0  0.3500864391425019  0.8840210015230672  0.1804050825731793  1.0000
  H   H958      1.0  0.34777114560065703  0.8892625249132521  0.238688475485663  1.0000
  H   H959      1.0  0.42696577050908746  0.8961168120489389  0.24369230611903317  1.0000
  H   H960      1.0  0.42872051584435095  0.8973803493855695  0.18798042897318573  1.0000
  H   H961      1.0  0.38776945906692917  0.8580060385805369  0.08421033651060196  1.0000
  H   H962      1.0  0.3637264610681712  0.8242483846767782  0.0648637990896885  1.0000
  H   H963      1.0  0.341853909544146  0.8117532918293024  0.16265398325372024  1.0000
  H   H964      1.0  0.36946817509304686  0.8410265118694451  0.18031721648198876  1.0000
  H   H965      1.0  0.29343790465718167  0.8380643011256925  0.0068414257720132475  1.0000
  H   H966      1.0  0.3246023709256715  0.8103778570217497  0.030507679901081785  1.0000
  H   H967      1.0  0.29687548680367754  0.8305210170211769  0.12338667485397686  1.0000
  H   H968      1.0  0.2693873598269649  0.859001172905453  0.09915330241024588  1.0000
  H   H969      1.0  0.3459101924740858  0.7685928950518139  0.14710120757988976  1.0000
  H   H970      1.0  0.3225563718864962  0.7481716146659045  0.18802722721740678  1.0000
  H   H971      1.0  0.25464074525167046  0.7646496731961432  0.13510366586754624  1.0000
  H   H972      1.0  0.278597114980895  0.7833119135736055  0.09529340232821783  1.0000
  H   H973      1.0  0.30709554091616137  0.7703716030897679  0.045253663395203425  1.0000
  H   H974      1.0  0.32207191285223874  0.7361765116692042  0.015431004732234868  1.0000
  H   H975      1.0  0.39233099698075924  0.7401517561235763  0.06917377412251595  1.0000
  H   H976      1.0  0.376492268594826  0.7737748577959042  0.09860461687340927  1.0000
  C   C1329     1.0  0.026155893357656265  0.6241393301236964  0.41226865493223774  1.0000
  C   C1330     1.0  0.03997661133084495  0.6025011778753357  0.4112920997339515  1.0000
  C   C1331     1.0  0.06584951346253563  0.6029716031971315  0.4074646719030156  1.0000
  C   C1332     1.0  0.07874452069178309  0.6255708936952581  0.4065692973324598  1.0000
  C   C1333     1.0  0.06437064811892221  0.6472323509054941  0.40708264541957845  1.0000
  C   C1334     1.0  0.03877835285624065  0.6462853314963624  0.40972101582081627  1.0000
  H   H977      1.0  0.03131537197159227  0.5843219852608867  0.41360097229322473  1.0000
  H   H978      1.0  0.07505153741262573  0.585664117536463  0.4029567593984573  1.0000
  H   H979      1.0  0.07272568607295536  0.6652192567238087  0.40636634576313385  1.0000
  H   H980      1.0  0.02874568913144131  0.6637782855116817  0.4100481259972593  1.0000
  C   C1335     1.0  0.11937395583106021  0.6731518522564065  0.4032408915955137  1.0000
  C   C1336     1.0  0.12076019326250371  0.6495405745464083  0.4163467876429292  1.0000
  C   C1337     1.0  0.13383169843750242  0.6484898954413436  0.44587027181605604  1.0000
  C   C1338     1.0  0.1457522309040423  0.6688831663431755  0.4585941413800345  1.0000
  C   C1339     1.0  0.14461795256912904  0.6909318756479988  0.44362825389138427  1.0000
  C   C1340     1.0  0.13178511304622786  0.6927895435502411  0.415370232444643  1.0000
  C   C1341     1.0  0.1083042407517749  0.6257974104345755  0.39813128737954184  1.0000
  C   C1342     1.0  0.10965609143451167  0.6262463204580323  0.3596850971526362  1.0000
  C   C1343     1.0  0.1295577357135558  0.6378523204940076  0.3447597999778513  1.0000
  C   C1344     1.0  0.13304366369928428  0.6357775808619556  0.31224695857182877  1.0000
  C   C1345     1.0  0.11657860917998432  0.6231242858670684  0.2935563128696665  1.0000
  C   C1346     1.0  0.09679442314194171  0.611404664719459  0.3068269578380643  1.0000
  C   C1347     1.0  0.09348277435977508  0.6127740997968643  0.33944724419255345  1.0000
  C   C1348     1.0  0.11895181967900627  0.5915227612833789  0.4366873102204357  1.0000
  C   C1349     1.0  0.1345113059536438  0.5751024772500087  0.45170095101951546  1.0000
  C   C1350     1.0  0.15801611140202965  0.5697209901012725  0.4395477335151713  1.0000
  C   C1351     1.0  0.1640659931941404  0.5804581420663153  0.4110772098370181  1.0000
  C   C1352     1.0  0.14845750019537535  0.5967168236213268  0.3966557100872659  1.0000
  C   C1353     1.0  0.12509921173138422  0.6028341008582815  0.40879221393295967  1.0000
  C   C1354     1.0  0.17936555137215793  0.5573184177117321  0.461939260775631  1.0000
  C   C1355     1.0  0.20698758406403467  0.6280316842115307  0.5000511778295291  1.0000
  C   C1356     1.0  0.18584019286070574  0.6179318851843731  0.5120157697576762  1.0000
  C   C1357     1.0  0.17755302508314857  0.5949849676255249  0.5019016186086779  1.0000
  C   C1358     1.0  0.18981556623206475  0.5821900809641108  0.4782494039528756  1.0000
  C   C1359     1.0  0.2108107741211787  0.5930747084633413  0.46524378985736226  1.0000
  C   C1360     1.0  0.2196100792114487  0.6152693449684976  0.4763583728598617  1.0000
  C   C1361     1.0  0.19958184184380803  0.5402896700460809  0.4454524303497967  1.0000
  C   C1362     1.0  0.1941199651431759  0.5274503061084768  0.4175931490451429  1.0000
  C   C1363     1.0  0.21280596425138115  0.5137291661570258  0.40284453911894763  1.0000
  C   C1364     1.0  0.2365405297896385  0.5120658664554776  0.41596476115949205  1.0000
  C   C1365     1.0  0.2412564357621409  0.5227029524816498  0.4457150735571597  1.0000
  C   C1366     1.0  0.2234856598081073  0.5374670141076694  0.4598357274512052  1.0000
  C   C1367     1.0  0.17318331806676718  0.5372675475529314  0.5177843696575771  1.0000
  C   C1368     1.0  0.16032777033904952  0.5218886380824819  0.536859429508698  1.0000
  C   C1369     1.0  0.14154066177916325  0.5068504050659306  0.5250357098463184  1.0000
  C   C1370     1.0  0.13670647792523827  0.506533523034648  0.4922912648847121  1.0000
  C   C1371     1.0  0.1492695320831269  0.5220888901877059  0.47256198468070504  1.0000
  C   C1372     1.0  0.16698862718499216  0.5382596924953993  0.48527630358259755  1.0000
  H   H981      1.0  0.10874367451920061  0.6756016691161625  0.38106186656646596  1.0000
  H   H982      1.0  0.1357779104938495  0.6315798821593471  0.4592029960880124  1.0000
  H   H983      1.0  0.15592896569177636  0.6677904679091706  0.4811933955408631  1.0000
  H   H984      1.0  0.13232259647542025  0.709343084819423  0.4012639045437265  1.0000
  H   H985      1.0  0.1439210283902913  0.6478785650841838  0.35782033038035865  1.0000
  H   H986      1.0  0.14822967818512384  0.6450299168432951  0.301645723656448  1.0000
  H   H987      1.0  0.08338935324053755  0.6021070318479357  0.29144800421419775  1.0000
  H   H988      1.0  0.07853009955067601  0.6026259917147098  0.34914116620977104  1.0000
  H   H989      1.0  0.10303267934817459  0.5971884721758538  0.4499842195095698  1.0000
  H   H990      1.0  0.12831067974355165  0.5684680872295556  0.47468223166378126  1.0000
  H   H991      1.0  0.18263561536932055  0.5777941338424899  0.4014214904681443  1.0000
  H   H992      1.0  0.15574351263563355  0.6050158175866736  0.3754771169117192  1.0000
  H   H993      1.0  0.17551396904442723  0.6267489476843158  0.5309189176912504  1.0000
  H   H994      1.0  0.16056056493801998  0.5875169169407192  0.5111848621562004  1.0000
  H   H995      1.0  0.22024651111300628  0.5861370604064426  0.44423472093384075  1.0000
  H   H996      1.0  0.23638129631066093  0.6227568900975234  0.4660627591312307  1.0000
  H   H997      1.0  0.17608979272287237  0.5285584697520278  0.4055473764892654  1.0000
  H   H998      1.0  0.20824843170048096  0.5054133001976671  0.3806798400830288  1.0000
  H   H999      1.0  0.260032525641736  0.5223522590583294  0.45698485481855544  1.0000
  H   H1000     1.0  0.22749965906229147  0.5470914395099136  0.4820553427941181  1.0000
  H   H1001     1.0  0.18888436762148292  0.5478127510103373  0.5277791375305013  1.0000
  H   H1002     1.0  0.16544471853029022  0.5200675554362744  0.5616314592940754  1.0000
  H   H1003     1.0  0.12197054172937086  0.9949527022721307  0.4822057657219715  1.0000
  H   H1004     1.0  0.14313034059390056  0.5232026767162302  0.44761326764673803  1.0000
  C   C1373     1.0  0.3629724024672562  0.6534412251553583  0.7429125763470865  1.0000
  C   C1374     1.0  0.38324286985009043  0.662159093177285  0.7276768826545089  1.0000
  C   C1375     1.0  0.3879808044173255  0.6545582660868028  0.6965656009095964  1.0000
  C   C1376     1.0  0.3722523041581242  0.6380309377182241  0.680489448953457  1.0000
  C   C1377     1.0  0.350836672746555  0.6311375680661432  0.69602360083622  1.0000
  C   C1378     1.0  0.3458442707406782  0.6390352557568111  0.7261702657104536  1.0000
  H   H1005     1.0  0.39719963967077954  0.672305484592783  0.739894567127933  1.0000
  H   H1006     1.0  0.40394630309632545  0.6608455421285941  0.6846224979711427  1.0000
  H   H1007     1.0  0.3376933437065784  0.6193256494018534  0.6841712291875824  1.0000
  H   H1008     1.0  0.3291483892964338  0.6330319144798793  0.7383903378493993  1.0000
  C   C1379     1.0  0.3768479393119151  0.5839851772066147  0.6585802301283368  1.0000
  C   C1380     1.0  0.37114428353213375  0.6021093210860586  0.6368644122104566  1.0000
  C   C1381     1.0  0.363490502566844  0.5954648742235212  0.6063213948596569  1.0000
  C   C1382     1.0  0.36033535165887576  0.5713291523664664  0.5978069796100515  1.0000
  C   C1383     1.0  0.36516930970354994  0.5533931185222903  0.6194822072140665  1.0000
  C   C1384     1.0  0.37353749603357317  0.5596292235591336  0.649647973412472  1.0000
  C   C1385     1.0  0.376717886463721  0.6302330193112962  0.6447508714279121  1.0000
  C   C1386     1.0  0.4049530105960118  0.6309219407850096  0.6327456891858998  1.0000
  C   C1387     1.0  0.4092468219438362  0.6358242904463605  0.6007366452049101  1.0000
  C   C1388     1.0  0.43331894977254526  0.6365398370294904  0.5895122295884225  1.0000
  C   C1389     1.0  0.45337730904977913  0.6321509893912642  0.6095710076343941  1.0000
  C   C1390     1.0  0.44974056676276164  0.6265995171866581  0.6409616462453199  1.0000
  C   C1391     1.0  0.4257489026389919  0.6254872811859554  0.6524343790760417  1.0000
  C   C1392     1.0  0.3340977953487934  0.6446606679974243  0.6211153704307603  1.0000
  C   C1393     1.0  0.3191183989382643  0.6624091985958906  0.6063094565320495  1.0000
  C   C1394     1.0  0.3277505093418207  0.6858387407268449  0.6004811649941115  1.0000
  C   C1395     1.0  0.35140607860981393  0.6917929575558882  0.6112280475063027  1.0000
  C   C1396     1.0  0.36734179946100826  0.6742633025421622  0.6236725602042676  1.0000
  C   C1397     1.0  0.3588996398430556  0.6503639007401755  0.6288418560582766  1.0000
  C   C1398     1.0  0.30954638352121533  0.7064660443585965  0.5853171012671783  1.0000
  C   C1399     1.0  0.25262942797471266  0.6805762732667804  0.5172113299324214  1.0000
  C   C1400     1.0  0.2488589100693876  0.7018269962295863  0.5344072970181358  1.0000
  C   C1401     1.0  0.2677366178009168  0.7105831482562788  0.5530000484339174  1.0000
  C   C1402     1.0  0.2898931834907943  0.6977678267890524  0.5580571240084166  1.0000
  C   C1403     1.0  0.2943759623142992  0.6776821298678017  0.5388579055501785  1.0000
  C   C1404     1.0  0.2758817047175285  0.6692154520332819  0.5182404137721801  1.0000
  C   C1405     1.0  0.3231054699467163  0.7270231306449667  0.5661871251090633  1.0000
  C   C1406     1.0  0.3431576954881378  0.7210344130614423  0.5469998449784328  1.0000
  C   C1407     1.0  0.3549379188426806  0.7377912375758056  0.5297489615857242  1.0000
  C   C1408     1.0  0.3478742058438155  0.7623927519199853  0.5318453319135855  1.0000
  C   C1409     1.0  0.3268659649060767  0.768896623472047  0.547754347283221  1.0000
  C   C1410     1.0  0.31481267970008536  0.7512927107859712  0.5654111338145816  1.0000
  C   C1411     1.0  0.30536174509741787  0.7336254447015271  0.6383017868543889  1.0000
  C   C1412     1.0  0.29219797844158496  0.7413418850451274  0.6639381515585427  1.0000
  C   C1413     1.0  0.26912247135542183  0.7309602675214981  0.6699025400312051  1.0000
  C   C1414     1.0  0.26101479663163196  0.7113872701111831  0.6513694802534606  1.0000
  C   C1415     1.0  0.2749285550041353  0.7025460689079711  0.6263658469124995  1.0000
  C   C1416     1.0  0.295922487117331  0.7154561563224253  0.617008585733811  1.0000
  H   H1009     1.0  0.3834361102144317  0.5889223932775977  0.6821393258288011  1.0000
  H   H1010     1.0  0.359883405497747  0.6090471460625426  0.5878026610750413  1.0000
  H   H1011     1.0  0.353721993766856  0.5672384011936511  0.5737011085051676  1.0000
  H   H1012     1.0  0.37657565256551834  0.5457658202894621  0.6668343898361005  1.0000
  H   H1013     1.0  0.39474538937954634  0.6401969868142935  0.5838439116404238  1.0000
  H   H1014     1.0  0.43570615100883003  0.6401412254208692  0.5648930103964199  1.0000
  H   H1015     1.0  0.46657982529475356  0.6239777988118059  0.6569446792461214  1.0000
  H   H1016     1.0  0.4232857273433943  0.6203051380415981  0.6771992458648547  1.0000
  H   H1017     1.0  0.3265078147516602  0.6272282071317622  0.626170058339738  1.0000
  H   H1018     1.0  0.29984490032142525  0.6576078546428603  0.6010733060434391  1.0000
  H   H1019     1.0  0.358166026947079  0.7104456823143477  0.6093752190616325  1.0000
  H   H1020     1.0  0.38687365344781327  0.679337372950825  0.6286174154992572  1.0000
  H   H1021     1.0  0.23090707534434698  0.7110076457477063  0.5347320195290575  1.0000
  H   H1022     1.0  0.26456477663614303  0.7267747820697955  0.5674072221905406  1.0000
  H   H1023     1.0  0.3121537143153981  0.6683756822363199  0.5409280115573036  1.0000
  H   H1024     1.0  0.27899833232161475  0.6523297526761926  0.5057218834430492  1.0000
  H   H1025     1.0  0.349540061833293  0.7018672008992749  0.5442922322770719  1.0000
  H   H1026     1.0  0.3705156432375391  0.7319288919912234  0.5155304134052979  1.0000
  H   H1027     1.0  0.31953691463481787  0.7874884052581784  0.5474033604515632  1.0000
  H   H1028     1.0  0.298517634016206  0.7570780298787517  0.5784883778757394  1.0000
  H   H1029     1.0  0.3231450082880616  0.7429924430238092  0.6351142533832101  1.0000
  H   H1030     1.0  0.29944568600351706  0.7559359199321382  0.6792239862270715  1.0000
  H   H1031     1.0  0.24385541762837099  0.7016511556490789  0.6568658862839126  1.0000
  H   H1032     1.0  0.2672573427327197  0.6867114825308117  0.6140789201389524  1.0000
  C   C1417     1.0  0.13524148728650712  0.8622125752582235  0.7108319024004522  1.0000
  C   C1418     1.0  0.11709212142706672  0.8480797228724222  0.6955818827147457  1.0000
  C   C1419     1.0  0.11006517424579555  0.852558186955506  0.6646186362321651  1.0000
  C   C1420     1.0  0.1214534471466166  0.8710276465423554  0.6473987924912359  1.0000
  C   C1421     1.0  0.14023569426016946  0.8843367218878158  0.6624912262525245  1.0000
  C   C1422     1.0  0.1464340920450656  0.8806287515766292  0.6942997063297098  1.0000
  H   H1033     1.0  0.10963410123726455  0.8330400163912605  0.7089026686590947  1.0000
  H   H1034     1.0  0.09502446787004465  0.8409851261968945  0.6538741413854955  1.0000
  H   H1035     1.0  0.15098132518933557  0.8975548486837165  0.6497936210092825  1.0000
  H   H1036     1.0  0.16041494214210592  0.8917379497441082  0.7057724391604315  1.0000
  C   C1423     1.0  0.1184462065332723  0.9228594126108398  0.6101130077077705  1.0000
  C   C1424     1.0  0.11892966957674413  0.9004489164434949  0.593853005506477  1.0000
  C   C1425     1.0  0.12300097254514615  0.9010919583737389  0.5610584195689197  1.0000
  C   C1426     1.0  0.1282790737345245  0.9226682957815141  0.5464650079016208  1.0000
  C   C1427     1.0  0.13100182947344666  0.9437360202710108  0.5636466489942064  1.0000
  C   C1428     1.0  0.12501933261469353  0.9444069243563634  0.595412151092005  1.0000
  C   C1429     1.0  0.1144483742132215  0.8746272097967149  0.6100748050594268  1.0000
  C   C1430     1.0  0.08489174142848575  0.8735001361506376  0.6029332974846736  1.0000
  C   C1431     1.0  0.07403539687140528  0.8630418747719424  0.575857170471066  1.0000
  C   C1432     1.0  0.0483490209002266  0.863880720504847  0.5703297247888349  1.0000
  C   C1433     1.0  0.03276400507358997  0.8758830074936568  0.5908015689700229  1.0000
  C   C1434     1.0  0.04326954388026987  0.8873350036780173  0.6177344360523416  1.0000
  C   C1435     1.0  0.06870221729133746  0.8860085905079318  0.6236773355353106  1.0000
  C   C1436     1.0  0.15806828006139456  0.8587833719272548  0.5949441686497944  1.0000
  C   C1437     1.0  0.17534511730951813  0.8409190373861813  0.587508978215899  1.0000
  C   C1438     1.0  0.1683778651264413  0.817016094167775  0.5791951268700981  1.0000
  C   C1439     1.0  0.14293804837528182  0.8124625386124835  0.5792763074978284  1.0000
  C   C1440     1.0  0.12529239768465705  0.8299743435335792  0.5873394539638738  1.0000
  C   C1441     1.0  0.13291762064685814  0.8538928184976504  0.5965653935388807  1.0000
  C   C1442     1.0  0.18904013860639474  0.7958379814674481  0.5732928177009943  1.0000
  C   C1443     1.0  0.25945235119592014  0.8207507268149804  0.5330105126880688  1.0000
  C   C1444     1.0  0.25879456499725356  0.7999165896811062  0.5512475019411495  1.0000
  C   C1445     1.0  0.2368186708169041  0.7908478775031197  0.5619705077981259  1.0000
  C   C1446     1.0  0.2143641771597752  0.8038702611895374  0.5569707361961422  1.0000
  C   C1447     1.0  0.21466210802510108  0.8236015317955916  0.5361526805143393  1.0000
  C   C1448     1.0  0.23704571190804516  0.8323467326305595  0.5251741944465643  1.0000
  C   C1449     1.0  0.17698061838868126  0.7762951795427574  0.548437219622365  1.0000
  C   C1450     1.0  0.16194402399070412  0.7579205466426622  0.5595135999765206  1.0000
  C   C1451     1.0  0.14930231395535024  0.7424593778028079  0.5387719495914053  1.0000
  C   C1452     1.0  0.15167632582366578  0.7447561840733284  0.506354614806242  1.0000
  C   C1453     1.0  0.16455929022958093  0.7641152415309446  0.4949582872722077  1.0000
  C   C1454     1.0  0.17669262285685058  0.7796565564607044  0.5157811182850536  1.0000
  C   C1455     1.0  0.20111653484658187  0.7624200824790157  0.6170300747235044  1.0000
  C   C1456     1.0  0.21332186118054508  0.7554129472915017  0.6448129507314707  1.0000
  C   C1457     1.0  0.22548510607150318  0.7724692219636834  0.6641124511416109  1.0000
  C   C1458     1.0  0.2229148127022521  0.7973635991673778  0.6566104060731139  1.0000
  C   C1459     1.0  0.21011754785684908  0.8045760955727902  0.6295700940423286  1.0000
  C   C1460     1.0  0.1985020059942825  0.7871961514984586  0.6091603291646991  1.0000
  H   H1037     1.0  0.11388501889146817  0.9237221593526129  0.6346653722651715  1.0000
  H   H1038     1.0  0.12123926121548038  0.8845987431736405  0.5468828493678801  1.0000
  H   H1039     1.0  0.1328347628380836  0.9217959507681508  0.5217096917748938  1.0000
  H   H1040     1.0  0.1274830039549126  0.9616629081077833  0.6088881352952502  1.0000
  H   H1041     1.0  0.08544872659951804  0.8539693914233956  0.557999820035901  1.0000
  H   H1042     1.0  0.040242807307182694  0.8540428145853696  0.5492323122410185  1.0000
  H   H1043     1.0  0.03155937590336434  0.897131641782  0.6333879712111785  1.0000
  H   H1044     1.0  0.07619264486426092  0.8955210951764863  0.6448511533798144  1.0000
  H   H1045     1.0  0.16490458371852762  0.8770127706703531  0.6008775174706775  1.0000
  H   H1046     1.0  0.1944940162137385  0.8462591084242495  0.5872129076912351  1.0000
  H   H1047     1.0  0.13530096300175823  0.7944588132578062  0.5747612319967057  1.0000
  H   H1048     1.0  0.10581324581223463  0.8256014493600508  0.5877596830956545  1.0000
  H   H1049     1.0  0.2763275667960915  0.7902780055406007  0.5567295819784726  1.0000
  H   H1050     1.0  0.23777247253968056  0.7741601475410488  0.5766140604413759  1.0000
  H   H1051     1.0  0.1973271131960915  0.8338368337495531  0.5309642833361585  1.0000
  H   H1052     1.0  0.23683143490188385  0.8484771057162402  0.5102966505822091  1.0000
  H   H1053     1.0  0.15797942802640202  0.7569019414747507  0.5842808544308551  1.0000
  H   H1054     1.0  0.13711953571177266  0.7286857615625681  0.5495570347519402  1.0000
  H   H1055     1.0  0.16630575123257552  0.7680227201623054  0.46957740277885235  1.0000
  H   H1056     1.0  0.18627457677358053  0.7949403857322876  0.5057290464396137  1.0000
  H   H1057     1.0  0.19613206095400812  0.7474557128862739  0.6007485835325175  1.0000
  H   H1058     1.0  0.21502718534261783  0.7357552586347146  0.6491465636529608  1.0000
  H   H1059     1.0  0.232880708198981  0.811216970261889  0.6702415885352556  1.0000
  H   H1060     1.0  0.2122001085313516  0.8235600651528359  0.6229634235443875  1.0000
  C   C1461     1.0  0.48740489886967897  0.8751479081463063  0.4494804220845371  1.0000
  C   C1462     1.0  0.47513422636078556  0.8905517341828039  0.42818483329843776  1.0000
  C   C1463     1.0  0.4495302429063696  0.8889168464457144  0.42314208371706746  1.0000
  C   C1464     1.0  0.4359432579971116  0.8697253350773924  0.4362026141195748  1.0000
  C   C1465     1.0  0.4480659383460171  0.85560704092124  0.45908838814298125  1.0000
  C   C1466     1.0  0.4733000392968415  0.8589279347676698  0.4664400102836248  1.0000
  H   H1061     1.0  0.48457128491749407  0.9041855293146832  0.4149022500024325  1.0000
  H   H1062     1.0  0.43958610819274235  0.9015662403377231  0.40766046047577714  1.0000
  H   H1063     1.0  0.4389454975270898  0.8411473319476425  0.4718504603553034  1.0000
  H   H1064     1.0  0.48252999008660874  0.8467859501277044  0.4829793693509317  1.0000
  C   C1467     1.0  0.39897155413867325  0.8225762721081527  0.44182079109162237  1.0000
  C   C1468     1.0  0.3915056976885269  0.8467958252311641  0.44572701188476715  1.0000
  C   C1469     1.0  0.3689910764906979  0.8510662379048551  0.46117282014323524  1.0000
  C   C1470     1.0  0.3549096991834166  0.8320230348390367  0.47145410787873737  1.0000
  C   C1471     1.0  0.3629007960724565  0.8079573644471387  0.46746193112681916  1.0000
  C   C1472     1.0  0.384840551317603  0.8033737410051298  0.45253185862099127  1.0000
  C   C1473     1.0  0.406397881272664  0.868198405334618  0.4285668597818749  1.0000
  C   C1474     1.0  0.3995697643784006  0.8628137992662984  0.39135509262957546  1.0000
  C   C1475     1.0  0.3749694637645245  0.8624574277946471  0.3795313729671959  1.0000
  C   C1476     1.0  0.37018732970344487  0.8618379067873411  0.3475772452932002  1.0000
  C   C1477     1.0  0.3894674877118086  0.860109177458346  0.32624584152427866  1.0000
  C   C1478     1.0  0.413528466389197  0.8581360522151571  0.3377567770033441  1.0000
  C   C1479     1.0  0.41880056951807715  0.8587869284453364  0.37021708976789397  1.0000
  C   C1480     1.0  0.40020942572646795  0.9013799313881313  0.4738680377209558  1.0000
  C   C1481     1.0  0.38534678373586556  0.9182934139722847  0.4888864538510786  1.0000
  C   C1482     1.0  0.36489038295047543  0.9291043713344295  0.47282701555358964  1.0000
  C   C1483     1.0  0.3631264422474781  0.9249745068461833  0.44078454425529906  1.0000
  C   C1484     1.0  0.3791347663084527  0.9094136354859789  0.4254055906314325  1.0000
  C   C1485     1.0  0.3960787290018933  0.8946648115521262  0.44205716997824906  1.0000
  C   C1486     1.0  0.34294186936517024  0.9425131587545705  0.49096133518924656  1.0000
  C   C1487     1.0  0.3081465223625915  0.8750426768981515  0.5245939917248442  1.0000
  C   C1488     1.0  0.3259544343656231  0.8879333842081564  0.5422101879423395  1.0000
  C   C1489     1.0  0.3360299803941056  0.9089107361949857  0.531654318671867  1.0000
  C   C1490     1.0  0.32835694747586697  0.918597268084428  0.5026441825858587  1.0000
  C   C1491     1.0  0.3116023155210018  0.9050142072108025  0.4839129465698312  1.0000
  C   C1492     1.0  0.30068394021412914  0.8838351868984068  0.4949033709652136  1.0000
  C   C1493     1.0  0.3276474895083497  0.9612733033832203  0.4691547859815501  1.0000
  C   C1494     1.0  0.339145048342883  0.978219232590854  0.44981947058858757  1.0000
  C   C1495     1.0  0.3253679356500817  0.9927124707833069  0.42919004048298176  1.0000
  C   C1496     1.0  0.2994357974600242  0.9910711727557214  0.4277646041666569  1.0000
  C   C1497     1.0  0.28820360376275395  0.9758994482104627  0.44871159378661984  1.0000
  C   C1498     1.0  0.3016706369802456  0.9622842241869082  0.4695702397822879  1.0000
  C   C1499     1.0  0.33787893652893264  0.9657344624892096  0.5448533336746203  1.0000
  C   C1500     1.0  0.3458521281062599  0.9820246938191348  0.5675791341080875  1.0000
  C   C1501     1.0  0.3684123258384733  0.9942324929424005  0.5649407637068496  1.0000
  C   C1502     1.0  0.38331459888162156  0.9895443319355122  0.539805808762207  1.0000
  C   C1503     1.0  0.3752976943710164  0.9736563328673047  0.5166144135520508  1.0000
  C   C1504     1.0  0.3525937015711948  0.9609476124925423  0.5184505283380706  1.0000
  H   H1065     1.0  0.41584817238213834  0.8182965099672102  0.42854775845770304  1.0000
  H   H1066     1.0  0.3609477115327412  0.8692278707890606  0.46395206281024043  1.0000
  H   H1067     1.0  0.33737979221639497  0.8364771461190134  0.4828098450989065  1.0000
  H   H1068     1.0  0.39190395891619695  0.7846279174733213  0.4512735588911702  1.0000
  H   H1069     1.0  0.3598442051123452  0.8656873412422552  0.3955621592784271  1.0000
  H   H1070     1.0  0.35135684871994066  0.8629037807860153  0.3377090236929145  1.0000
  H   H1071     1.0  0.4290497216193941  0.8564018935951625  0.3216448100643825  1.0000
  H   H1072     1.0  0.4384481022252394  0.8567669863001959  0.37745887929454935  1.0000
  H   H1073     1.0  0.41399546239730095  0.8911005294294901  0.48797675328739387  1.0000
  H   H1074     1.0  0.3887582514864507  0.9213846979653297  0.5142936026651702  1.0000
  H   H1075     1.0  0.34787810298569727  0.9325920094420148  0.42596907969450226  1.0000
  H   H1076     1.0  0.3763997202561341  0.9075650184504918  0.40070519081169964  1.0000
  H   H1077     1.0  0.33193968919838734  0.8819378289729658  0.5652583232212067  1.0000
  H   H1078     1.0  0.34940510670692526  0.9177949320580292  0.5473006908341395  1.0000
  H   H1079     1.0  0.30557536201410124  0.9112280510051828  0.4607693046701047  1.0000
  H   H1080     1.0  0.28648803611972146  0.8746580036032257  0.4806084174880999  1.0000
  H   H1081     1.0  0.359367085373803  0.9789884620033392  0.44853251887250867  1.0000
  H   H1082     1.0  0.3337121486208677  0.5046259262216356  0.41220896329420065  1.0000
  H   H1083     1.0  0.2681037684667085  0.9754915097585904  0.4503375940067492  1.0000
  H   H1084     1.0  0.291783445104408  0.9515650797182809  0.4861024358530303  1.0000
  H   H1085     1.0  0.3199260347981099  0.9572308527459048  0.5476086996864107  1.0000
  H   H1086     1.0  0.3331274382568809  0.9864724463347173  0.5864225904036247  1.0000
  H   H1087     1.0  0.4005878777686038  0.9987052918681082  0.5361837201661185  1.0000
  H   H1088     1.0  0.3863173928254852  0.9713686083110187  0.4955719173112286  1.0000
  C   C1505     1.0  0.2840940330821903  0.8325706927106918  0.5210578590875291  1.0000
  C   C1506     1.0  0.2921898482478705  0.8556626696417969  0.5409709895366903  1.0000
  H   H1089     1.0  0.29974051337890856  0.8186188910987073  0.5216452248058138  1.0000
  H   H1090     1.0  0.28073124116270337  0.8372071309090641  0.4962643403124585  1.0000
  H   H1091     1.0  0.3013390195451872  0.8506691803717863  0.5641313450950671  1.0000
  H   H1092     1.0  0.27428307636797195  0.8647663788634288  0.5468852370334015  1.0000
  C   C1507     1.0  0.25276426982516126  0.7402977629469498  0.6973033895557343  1.0000
  C   C1508     1.0  0.24230498377620527  0.7666738034634583  0.6936454859768237  1.0000
  H   H1093     1.0  0.2643685832311087  0.7400621047148347  0.7195134542365613  1.0000
  H   H1094     1.0  0.2381929350266558  0.7263514226561489  0.7024225444337922  1.0000
  H   H1095     1.0  0.2589284561219282  0.7794319403673802  0.6936263846526518  1.0000
  H   H1096     1.0  0.23157059507168742  0.7722176464828677  0.7147882641695481  1.0000
  C   C1509     1.0  0.3626016795148326  0.7805459250230498  0.5133480871186632  1.0000
  C   C1510     1.0  0.34940638143488634  0.7868555296411089  0.4812889021617223  1.0000
  H   H1097     1.0  0.36579430135888136  0.7970375121547408  0.5278794194824036  1.0000
  H   H1098     1.0  0.3819990577592195  0.7728601736783993  0.5101748796406135  1.0000
  H   H1099     1.0  0.3296884552895023  0.7920332400809795  0.485347933548242  1.0000
  H   H1100     1.0  0.348274957158474  0.7702794433094763  0.4651029175915948  1.0000
  C   C1511     1.0  0.3784803561305639  0.5125168907121556  0.5903622385140701  1.0000
  C   C1512     1.0  0.3580772725331745  0.5270591031953086  0.6094253600375837  1.0000
  H   H1101     1.0  0.3920715563956519  0.5036779932051013  0.6064073508184302  1.0000
  H   H1102     1.0  0.3884460045488692  0.5272021982263398  0.5771106948698442  1.0000
  H   H1103     1.0  0.33981738783580284  0.5279526010645964  0.5959398251722524  1.0000
  H   H1104     1.0  0.35347095108282583  0.5164210583085374  0.6305275479164429  1.0000
  C   C1513     1.0  0.25671249031531557  0.998466499632522  0.39662228276996514  1.0000
  C   C1514     1.0  0.284527488750109  0.505496247224983  0.4023598430180868  1.0000
  H   H1105     1.0  0.2548011700789941  0.9784941808980003  0.397577348978558  1.0000
  H   H1106     1.0  0.2521184297006579  0.50221610243996  0.3708354951379579  1.0000
  H   H1107     1.0  0.28699983984693667  0.5259644796524835  0.40609176422816334  1.0000
  H   H1108     1.0  0.294601926034363  0.5015268837450452  0.37988235979885376  1.0000
  C   C1515     1.0  0.1387966018297693  0.7268748137226279  0.4830796513028339  1.0000
  C   C1516     1.0  0.1571072262526808  0.7128998416133363  0.46054486411108536  1.0000
  H   H1109     1.0  0.12435008098202834  0.7370873485619264  0.4687560458394625  1.0000
  H   H1110     1.0  0.12867709940871358  0.7129250903106314  0.4969663139757742  1.0000
  H   H1111     1.0  0.17383967937746636  0.7074682778490163  0.4748517559158064  1.0000
  H   H1112     1.0  0.16400077048977868  0.7252932691980601  0.4425633550688033  1.0000
  C   C1517     1.0  0.12828971495932745  0.9897760184189249  0.5474869287448151  1.0000
  C   C1518     1.0  0.14403920339499568  0.9659082731168631  0.5482653077048183  1.0000
  H   H1113     1.0  0.12720205491374315  0.9973957480857139  0.5709433548278557  1.0000
  H   H1114     1.0  0.109266282228838  0.986092941446728  0.5380341609452672  1.0000
  H   H1115     1.0  0.16217872497373959  0.9693174142897651  0.5609748512756678  1.0000
  H   H1116     1.0  0.14853289576239923  0.9602280063281504  0.5237583087923254  1.0000
  C   C1519     1.0  0.21733159261879095  0.650294138101681  0.5181902727962291  1.0000
  C   C1520     1.0  0.23025038020675326  0.6699186625184811  0.4982437150297671  1.0000
  H   H1117     1.0  0.23016100188428656  0.6430069118213867  0.5367185572429306  1.0000
  H   H1118     1.0  0.2030696101062622  0.6602447530579979  0.5317999662686773  1.0000
  H   H1119     1.0  0.21596531825978924  0.6840006933143602  0.49171583749403497  1.0000
  H   H1120     1.0  0.23711783783053075  0.6621851997093199  0.4749544255332302  1.0000
  C   C1521     1.0  0.38738822878043805  0.8892698860531278  0.28154635529661126  1.0000
  C   C1522     1.0  0.38498574766710325  0.862335835130557  0.2904571230227826  1.0000
  H   H1121     1.0  0.4050359049717878  0.897109760675239  0.2935634758662309  1.0000
  H   H1122     1.0  0.37182223763209793  0.9001145277806101  0.2927612202510129  1.0000
  H   H1123     1.0  0.3993438328326409  0.8518833654091683  0.2775231388929138  1.0000
  H   H1124     1.0  0.36623155077970154  0.8548112044114105  0.2838241882041052  1.0000
  C   C1523     1.0  0.1422887508475183  0.8585304550797254  0.7461741274494311  1.0000
  C   C1524     1.0  0.12157251838384966  0.8669020724419909  0.7690312494865797  1.0000
  H   H1125     1.0  0.14632378115278  0.8383569755543471  0.7508706655301866  1.0000
  H   H1126     1.0  0.15930476740245675  0.8691063816691129  0.751541599541723  1.0000
  H   H1127     1.0  0.10522028213678876  0.8555738349796808  0.7651489053486499  1.0000
  H   H1128     1.0  0.11663601549458813  0.886379966540017  0.762252667071092  1.0000
  C   C1525     1.0  0.2676877812814597  0.8924204052920821  0.035368728136267305  1.0000
  C   C1526     1.0  0.2581719325791568  0.8656071221458823  0.03646777057580554  1.0000
  H   H1129     1.0  0.26745199307447143  0.9011369062356759  0.05891755687498935  1.0000
  H   H1130     1.0  0.2874603071798461  0.8927870213243384  0.02863001973498822  1.0000
  H   H1131     1.0  0.253402854400167  0.8581974194313878  0.012078435820211345  1.0000
  H   H1132     1.0  0.24136735690539254  0.8656880017272842  0.05073407206666141  1.0000
  C   C1527     1.0  0.3610794045844408  0.6553421766764286  0.7789233477420803  1.0000
  C   C1528     1.0  0.36925746955537064  0.6299899566966226  0.7928792527151435  1.0000
  H   H1133     1.0  0.3746548900669592  0.6696790385515203  0.7877839744923005  1.0000
  H   H1134     1.0  0.34271802655201816  0.6618543908035611  0.7876263885678827  1.0000
  H   H1135     1.0  0.38421073876271244  0.621649826950947  0.7773642021565524  1.0000
  H   H1136     1.0  0.3531241246794938  0.6169046454493965  0.7901238867033532  1.0000
  C   C1529     1.0  0.275306208995197  0.9896305103591683  0.8394411180495671  1.0000
  C   C1530     1.0  0.28220865078531554  0.5170566195579908  0.8367263423516419  1.0000
  H   H1137     1.0  0.26679210395286085  0.9838148513713161  0.8162019695289813  1.0000
  H   H1138     1.0  0.29290264292580354  0.9797815132957151  0.8406946424483451  1.0000
  H   H1139     1.0  0.2645797229909307  0.527878284804026  0.8315092931872033  1.0000
  H   H1140     1.0  0.2941969662712818  0.5189534534593193  0.8163189651395338  1.0000
  C   C1531     1.0  0.36474193222537826  0.9602766764942078  0.0325455524236668  1.0000
  C   C1532     1.0  0.3535041356788169  0.9616319837974556  0.06621378517553451  1.0000
  H   H1141     1.0  0.38537680654499856  0.9595866200841346  0.03466532187363866  1.0000
  H   H1142     1.0  0.35860903963755786  0.9430486968306896  0.020782837615361045  1.0000
  H   H1143     1.0  0.3326390021050127  0.9603085063851999  0.06368453108862847  1.0000
  H   H1144     1.0  0.35766474217389266  0.9795464342270488  0.07805087576483445  1.0000
  C   C1533     1.0  0.3664630506256514  0.712197003087835  0.019631911204041  1.0000
  C   C1534     1.0  0.3941250013075247  0.7095294905932137  0.010513822480639303  1.0000
  H   H1145     1.0  0.36083485607845694  0.6957776161398149  0.03336595429684807  1.0000
  H   H1146     1.0  0.3552915501170608  0.7123493078873009  0.9972162685218143  1.0000
  H   H1147     1.0  0.4072661642418308  0.7081104351579703  0.032379609669923794  1.0000
  H   H1148     1.0  0.40056224867546586  0.7261885666224105  0.9977953753050601  1.0000
  C   C1535     1.0  0.13025103195227727  0.6024046256362379  0.2417582970466326  1.0000
  C   C1536     1.0  0.11815584249420508  0.6247661251730503  0.25707994669798356  1.0000
  H   H1149     1.0  0.12159955315661379  0.5849201457159116  0.25134716178090494  1.0000
  H   H1150     1.0  0.1501354257685052  0.6011142154697201  0.2501270646994275  1.0000
  H   H1151     1.0  0.12934256900110272  0.6410254150964027  0.24903351389058873  1.0000
  H   H1152     1.0  0.0988174258099697  0.6281600758566048  0.24663868537254213  1.0000
  C   C1537     1.0  0.2707428078431266  0.7452159011450444  0.1938068103787065  1.0000
  C   C1538     1.0  0.24178052965311564  0.7458966833912424  0.191009421453738  1.0000
  H   H1153     1.0  0.2767584323021357  0.7258773449762811  0.1995092719436623  1.0000
  H   H1154     1.0  0.27537180301516406  0.7563620367985572  0.2153707727694204  1.0000
  H   H1155     1.0  0.23651895043728133  0.7653482107477921  0.18686873190638364  1.0000
  H   H1156     1.0  0.235083130849496  0.740594729738637  0.2144460299129504  1.0000
  C   C1539     1.0  0.1615941706631883  0.5366548953521646  0.037563947816718  1.0000
  C   C1540     1.0  0.17288139754208018  0.5428156531371997  0.0050751024491863935  1.0000
  H   H1157     1.0  0.17534199302939887  0.5271687030953363  0.05255562209300015  1.0000
  H   H1158     1.0  0.14677682144320994  0.5225401311615872  0.03345955078529018  1.0000
  H   H1159     1.0  0.15888981903694246  0.5518137603368246  0.9888717834273729  1.0000
  H   H1160     1.0  0.18830939004132277  0.5557034266399228  0.008927409754856131  1.0000
  C   C1541     1.0  0.17657540807256225  0.786642803721926  0.00825848138235769  1.0000
  C   C1542     1.0  0.17226098431775058  0.7808255445486313  0.9728137264140386  1.0000
  H   H1161     1.0  0.15998480038875398  0.7969327239307314  0.017126629278970636  1.0000
  H   H1162     1.0  0.1931197621954085  0.7989179871264868  0.013277425938478825  1.0000
  H   H1163     1.0  0.18884127205120652  0.7718259526523449  0.9621074342157127  1.0000
  H   H1164     1.0  0.1566333562275948  0.7669079895182711  0.9701371533644572  1.0000
  C   C1543     1.0  0.2502956901937176  0.6130631697624862  0.025137342610164124  1.0000
  C   C1544     1.0  0.25466064118812076  0.5888415744660437  0.04376853544084153  1.0000
  H   H1165     1.0  0.26779842772955265  0.6213530871077144  0.019753610515670948  1.0000
  H   H1166     1.0  0.24204826066234078  0.6082713695559253  0.001089976473553168  1.0000
  H   H1167     1.0  0.23654205700627026  0.579462859888639  0.047282701555358964  1.0000
  H   H1168     1.0  0.26126105909331143  0.5920274993647997  0.06819196606008249  1.0000
  C   C1545     1.0  0.9915450943859564  0.9017108123616739  0.5820268981785759  1.0000
  C   C1546     1.0  0.004254069062217646  0.8761290143457485  0.5839895592372343  1.0000
  H   H1169     1.0  0.9941178846311719  0.9089003408933591  0.5581024896533248  1.0000
  H   H1170     1.0  0.9996817672721695  0.9157481206979518  0.5988169621256384  1.0000
  H   H1171     1.0  0.9961514619187282  0.8650512263617209  0.6029452358122811  1.0000
  H   H1172     1.0  0.9993522808806178  0.8651660894352605  0.5621567457088015  1.0000
  C   C1547     1.0  0.5315544627884937  0.8559260501948808  0.44649584018268434  1.0000
  C   C1548     1.0  0.5152878417308964  0.8781629254829803  0.45583161237167963  1.0000
  H   H1173     1.0  0.5229623037936048  0.8446450836341843  0.42709128248959893  1.0000
  H   H1174     1.0  0.5329274837934671  0.843001963079904  0.46684591342227677  1.0000
  H   H1175     1.0  0.5223969583695619  0.8947703037052811  0.44444961083077417  1.0000
  H   H1176     1.0  0.5177942261458236  0.8827354967728491  0.4813509814652809  1.0000
  C   C1549     1.0  0.7691640510470701  0.8546992560097963  0.511777003205528  1.0000
  C   C1550     1.0  0.7618786281949443  0.8796092845273421  0.4998195742739453  1.0000
  H   H1177     1.0  0.7707524324794658  0.8557408958181165  0.5380198349521383  1.0000
  H   H1178     1.0  0.7880205477136419  0.8492080158170465  0.5040027642675821  1.0000
  H   H1179     1.0  0.765178637179835  0.880334992894689  0.47321859269911265  1.0000
  H   H1180     1.0  0.7414767943763512  0.8822482963655045  0.5006242175546848  1.0000
  C   C1551     1.0  0.48021914213753386  0.6332531466278549  0.5971455962606009  1.0000
  C   C1552     1.0  0.4965674144032739  0.6102405625664401  0.6019686806139949  1.0000
  H   H1181     1.0  0.479421119115157  0.6352667861397694  0.5712274870249121  1.0000
  H   H1182     1.0  0.4898536143073522  0.6500824409482625  0.6067392363259162  1.0000
  H   H1183     1.0  0.489595514479779  0.5982518674625418  0.6207882602543172  1.0000
  H   H1184     1.0  0.49454690322286526  0.5989221184750018  0.5801382547510836  1.0000
  C   C1553     1.0  0.7392583852861027  0.514947506134243  0.6985234866372118  1.0000
  C   C1554     1.0  0.7462899479006467  0.9903244648099401  0.6827123655539569  1.0000
  H   H1185     1.0  0.7566858734983026  0.5251956901062043  0.703847980750117  1.0000
  H   H1186     1.0  0.7303464654737366  0.5115628536075217  0.7215358069332568  1.0000
  H   H1187     1.0  0.7295016375590682  0.9788855648766728  0.6791595192579915  1.0000
  H   H1188     1.0  0.7570400833803623  0.9794195606192002  0.7004574957096124  1.0000
  C   C1555     1.0  0.6480537425223647  0.9788904412829217  0.5100172937161956  1.0000
  C   C1556     1.0  0.6654683714920577  0.9746118084190046  0.48138440878258165  1.0000
  H   H1189     1.0  0.647230057146226  0.9622472248770322  0.5248542472666857  1.0000
  H   H1190     1.0  0.6281792205042037  0.9822460284080793  0.5017082177014377  1.0000
  H   H1191     1.0  0.685253468615348  0.9733246533610523  0.4890583657686253  1.0000
  H   H1192     1.0  0.6651094606493951  0.9904428911568791  0.46459434483551915  1.0000
  C   C1557     1.0  0.6271673750590419  0.7392928733496098  0.5624743052231586  1.0000
  C   C1558     1.0  0.6133829425603347  0.7169858764889476  0.5459039065040724  1.0000
  H   H1193     1.0  0.6408316099214987  0.7330653679942792  0.5808426160799207  1.0000
  H   H1194     1.0  0.6140910609922183  0.7502250628531179  0.5762941132614973  1.0000
  H   H1195     1.0  0.5957192578670087  0.7237260186728245  0.53478454817053  1.0000
  H   H1196     1.0  0.6255787971337241  0.7112676674736147  0.5256684412095111  1.0000
  C   C1559     1.0  0.9850980296994426  0.6369820860406619  0.4419162977124816  1.0000
  C   C1560     1.0  0.9974682097525384  0.6227671453531457  0.4140713424009567  1.0000
  H   H1197     1.0  0.9926709998289807  0.6560358910806902  0.4441989059510186  1.0000
  H   H1198     1.0  0.9897350872991589  0.6279484086922779  0.46566640665466463  1.0000
  H   H1199     1.0  0.9926286046139917  0.603029708725393  0.4157045056176505  1.0000
  H   H1200     1.0  0.9901226268665861  0.6296429353245234  0.39068177095251755  1.0000
  C   C1561     1.0  0.730231535952667  0.7093250487880023  0.3623067538952236  1.0000
  C   C1562     1.0  0.7059850103693639  0.7073993885847454  0.3816754966054869  1.0000
  H   H1201     1.0  0.7283923011452935  0.695875547237041  0.34214053090078533  1.0000
  H   H1202     1.0  0.7298636412591741  0.7276715901318689  0.35203024149076445  1.0000
  H   H1203     1.0  0.7065755879193444  0.6898633481769562  0.39476467899425205  1.0000
  H   H1204     1.0  0.6900889408068167  0.705637791096397  0.3647421727271354  1.0000
  C   C1563     1.0  0.8437520340216099  0.5330579050703932  0.455709841430084  1.0000
  C   C1564     1.0  0.8363544098056288  0.544816463802082  0.4883277401190518  1.0000
  H   H1205     1.0  0.8267259853524103  0.524528242361193  0.44324861507346863  1.0000
  H   H1206     1.0  0.85805420150492  0.5182811553625709  0.4592531370639636  1.0000
  H   H1207     1.0  0.852327723796781  0.5553269187377392  0.49947336277333043  1.0000
  H   H1208     1.0  0.8208420338625109  0.5589928040024897  0.4849205414198967  1.0000
  C   C1565     1.0  0.8402140004000708  0.7890640663575121  0.5299017721790991  1.0000
  C   C1566     1.0  0.8577246028660986  0.8079589104365218  0.5146636908209999  1.0000
  H   H1209     1.0  0.8237145145903947  0.7991324379427206  0.5395765928721448  1.0000
  H   H1210     1.0  0.8498338518614406  0.7814000220752885  0.5522383831325646  1.0000
  H   H1211     1.0  0.8746975626923774  0.7981246060496414  0.5065002624030525  1.0000
  H   H1212     1.0  0.8490849128535203  0.8155176225355877  0.49247033979882326  1.0000
  C   C1567     1.0  0.7528444481674289  0.6448558930347636  0.547367545468741  1.0000
  C   C1568     1.0  0.7511226706632448  0.6220511528716524  0.5249903442014102  1.0000
  H   H1213     1.0  0.7628540262313201  0.6411608379763224  0.5695465704977887  1.0000
  H   H1214     1.0  0.7337423427631635  0.6512348532292807  0.5525416166537929  1.0000
  H   H1215     1.0  0.7697581617968265  0.6141380414599623  0.5217073041093723  1.0000
  H   H1216     1.0  0.7438928758171773  0.6266112842159394  0.5010539973485516  1.0000
  C   C1569     1.0  0.5146414657225442  0.8768750623725554  0.10090489383680519  1.0000
  C   C1570     1.0  0.4984382282078256  0.8546340927514479  0.11035622903704015  1.0000
  H   H1217     1.0  0.5081605675750392  0.893766609515578  0.11291461264330827  1.0000
  H   H1218     1.0  0.5116013830827242  0.881367356740387  0.07574080937280046  1.0000
  H   H1219     1.0  0.5074335231226809  0.8470705261481191  0.13210690687153398  1.0000
  H   H1220     1.0  0.49982644108454694  0.8400916030350672  0.0923754362944145  1.0000
  C   C1571     1.0  0.6562943192424209  0.872085995814849  0.2642238419382582  1.0000
  C   C1572     1.0  0.6539379727897217  0.8984041432314531  0.27797679534199543  1.0000
  H   H1221     1.0  0.6429709058305467  0.8613651203392465  0.27807707729389763  1.0000
  H   H1222     1.0  0.6747739814940537  0.8640727272101563  0.26984201891030574  1.0000
  H   H1223     1.0  0.6373960070534269  0.9075662215276129  0.2660193664104128  1.0000
  H   H1224     1.0  0.6706856047639062  0.9092333706433197  0.2718190059620929  1.0000
  C   C1573     1.0  0.02211671947104823  0.8440019319293406  0.9482995645049814  1.0000
  C   C1574     1.0  0.036689667087947214  0.8672538212025339  0.9612813019452799  1.0000
  H   H1225     1.0  0.02296009200618692  0.8286268809844257  0.9666726506927866  1.0000
  H   H1226     1.0  0.03188356738265066  0.8361052184133269  0.9275698524474733  1.0000
  H   H1227     1.0  0.02647850358173012  0.884566103585594  0.9550160676169107  1.0000
  H   H1228     1.0  0.036955116488609274  0.8663238158321642  0.9882452086793779  1.0000
  C   C1575     1.0  0.9071876802614688  0.8709342963002259  0.7639335835982154  1.0000
  C   C1576     1.0  0.8810801788039098  0.8646486039080252  0.7484233083706673  1.0000
  H   H1229     1.0  0.9140327038185901  0.8889885226230186  0.7569186222961009  1.0000
  H   H1230     1.0  0.9205712709371898  0.8580472623866349  0.7533753266622213  1.0000
  H   H1231     1.0  0.8762317465746112  0.845365387021012  0.7541298289670096  1.0000
  H   H1232     1.0  0.8652309408392164  0.8751651988502385  0.758632966140525  1.0000
  C   C1577     1.0  0.7705855081169894  0.8651196072315024  0.02781200552732843  1.0000
  C   C1578     1.0  0.7552975037033217  0.8831079028638394  0.007389681529055979  1.0000
  H   H1233     1.0  0.7586205515015937  0.8522224100411862  0.04052966716095098  1.0000
  H   H1234     1.0  0.7822160709110421  0.8757952616421253  0.04546688192627178  1.0000
  H   H1235     1.0  0.7679980710329588  0.8932194971343576  0.9922652052964689  1.0000
  H   H1236     1.0  0.743008530056646  0.8723836224035608  0.9905109874378359  1.0000
  C   C1579     1.0  0.529310069328188  0.6305624855141071  0.9620835575604979  1.0000
  C   C1580     1.0  0.5158040851395923  0.6073887139005215  0.9483425424843681  1.0000
  H   H1237     1.0  0.528780972494255  0.6311164918511352  0.9882403652802169  1.0000
  H   H1238     1.0  0.5201613950285703  0.6473382705928432  0.9550662085928618  1.0000
  H   H1239     1.0  0.5234278078534071  0.601840373556903  0.9249744600256222  1.0000
  H   H1240     1.0  0.5205379555585478  0.5915829636722031  0.9638122273980511  1.0000
  C   C1581     1.0  0.6188973835285413  0.6521937642777138  0.7683412141508714  1.0000
  C   C1582     1.0  0.6443008800387808  0.642891687941494  0.7815330661570604  1.0000
  H   H1241     1.0  0.6163080285885091  0.6719057051635358  0.773677646591384  1.0000
  H   H1242     1.0  0.6045590769532841  0.6425242667791013  0.7815426168191463  1.0000
  H   H1243     1.0  0.6486910314227239  0.624555887472665  0.7708721396036425  1.0000
  H   H1244     1.0  0.6598419070556222  0.6552452202315879  0.7743175409511414  1.0000
  C   C1583     1.0  0.7678746944526428  0.7356572850923624  0.8442546517408751  1.0000
  C   C1584     1.0  0.7721528786822859  0.7626219992171894  0.8351146681246413  1.0000
  H   H1245     1.0  0.7591307647507121  0.7260674837208824  0.8237637062355152  1.0000
  H   H1246     1.0  0.7862804650909496  0.7261725808166707  0.8471294010287396  1.0000
  H   H1247     1.0  0.7533914851915169  0.7717921994285377  0.8328057955653682  1.0000
  H   H1248     1.0  0.780575584745012  0.7631000360839586  0.8111401186234389  1.0000
  C   C1585     1.0  0.6390451779796886  0.5220046573737674  0.9927150653573714  1.0000
  C   C1586     1.0  0.6588928878630348  0.5337016627447293  0.9723815589546505  1.0000
  H   H1249     1.0  0.6275410816976896  0.5364069663542705  0.006215905158695353  1.0000
  H   H1250     1.0  0.624721963839973  0.5118708542902686  0.9779877975990906  1.0000
  H   H1251     1.0  0.6632541659723883  0.5224805745529134  0.951317573724135  1.0000
  H   H1252     1.0  0.6774093276010086  0.5352650477571496  0.9846277318395936  1.0000
  C   C1587     1.0  0.6812729337594994  0.7963236926207655  0.029324114102083083  1.0000
  C   C1588     1.0  0.67902805269278  0.7894674598938203  0.06548912868976468  1.0000
  H   H1253     1.0  0.6946390479611662  0.81175812419293  0.02846718094642314  1.0000
  H   H1254     1.0  0.6631347973282475  0.8034610263095269  0.01996869142584606  1.0000
  H   H1255     1.0  0.6693921844742231  0.7715176703405588  0.06774117480962666  1.0000
  H   H1256     1.0  0.6988885216188068  0.7871949610874459  0.07558417851459123  1.0000
  C   C1589     1.0  0.9960818069021251  0.6098615924790197  0.07700412320021667  1.0000
  C   C1590     1.0  0.008390009561566643  0.6356211609388559  0.07721781926438932  1.0000
  H   H1257     1.0  0.004166918846732194  0.5986601809188751  0.09690579285487473  1.0000
  H   H1258     1.0  0.9995484503061227  0.6001358935628078  0.054054120974282346  1.0000
  H   H1259     1.0  0.9996929229541082  0.6469593170311089  0.09595478567766838  1.0000
  H   H1260     1.0  0.004653220147492345  0.643722496565297  0.05330988563123636  1.0000
  C   C1591     1.0  0.8719865800274962  0.6230834083317742  0.2629368902221793  1.0000
  C   C1592     1.0  0.8790161842901911  0.6473628079547844  0.2450723767904498  1.0000
  H   H1261     1.0  0.8535145940363681  0.6168072001891248  0.2541908714169902  1.0000
  H   H1262     1.0  0.8833906243469568  0.6083621072329917  0.2529373470182121  1.0000
  H   H1263     1.0  0.8957656276369356  0.6560943002790621  0.2561893474584707  1.0000
  H   H1264     1.0  0.8641516578081838  0.6614229325255997  0.24879952266948346  1.0000
  C   C1593     1.0  0.7939585534913053  0.9615877080765284  0.14856651791042336  1.0000
  C   C1594     1.0  0.7707239676729413  0.9757361692311506  0.16339105560020178  1.0000
  H   H1265     1.0  0.7887090198203791  0.9436501464690146  0.13815152090571822  1.0000
  H   H1266     1.0  0.8085305808113781  0.95740175050334  0.16737774072142053  1.0000
  H   H1267     1.0  0.7741719280317272  0.9958414244182573  0.16517631311061398  1.0000
  H   H1268     1.0  0.7692065991259976  0.9700304917871315  0.18799762016494043  1.0000
  C   C1595     1.0  0.9113712101889795  0.9578082310750413  0.9790980620665798  1.0000
  C   C1596     1.0  0.8844148776473216  0.967229705889524  0.9746593918621443  1.0000
  H   H1269     1.0  0.9153428789838739  0.9531569687117631  0.004515027747812325  1.0000
  H   H1270     1.0  0.9240675068133354  0.9730459917685569  0.9735849423774774  1.0000
  H   H1271     1.0  0.8715765201945055  0.9516697392287393  0.9766745815622754  1.0000
  H   H1272     1.0  0.8811291664911812  0.9726490723695722  0.9493238730136974  1.0000
  C   C1597     1.0  0.8475282395431226  0.7127217978194075  0.04748613065778924  1.0000
  C   C1598     1.0  0.8620407309327859  0.7156276111986407  0.01681926509639024  1.0000
  H   H1273     1.0  0.8271388127189556  0.7108342097347171  0.04326664814822598  1.0000
  H   H1274     1.0  0.8501774928026913  0.7289995486187804  0.0633593310446026  1.0000
  H   H1275     1.0  0.8585267491191805  0.6990596319938625  0.0013725543003550596  1.0000
  H   H1276     1.0  0.8829919069472905  0.7158923662689552  0.02045673025843701  1.0000
  C   C1599     1.0  0.7567442165149416  0.6097662959611189  0.028211700735624543  1.0000
  C   C1600     1.0  0.7660324270333325  0.6355582175250343  0.04031716492953907  1.0000
  H   H1277     1.0  0.7384128478556472  0.6050996495450411  0.03937618594752295  1.0000
  H   H1278     1.0  0.7533829969082624  0.6099978861723788  0.0015968993527535227  1.0000
  H   H1279     1.0  0.7866720706741631  0.634857875035929  0.03783494785340622  1.0000
  H   H1280     1.0  0.7628641064985962  0.6381169657611558  0.065720015945692  1.0000
