data_image0
_chemical_formula_sum              "C800 H640"
_cell_length_a       20.97805071682957
_cell_length_b       30.15620288973
_cell_length_c       49.56372162655555
_cell_angle_alpha    91.66719999978461
_cell_angle_beta     89.91849999973894
_cell_angle_gamma    89.81049999988095

_space_group_name_H-M_alt    "P 1"
_space_group_IT_number       1

loop_
  _space_group_symop_operation_xyz
  'x, y, z'

loop_
  _atom_site_type_symbol
  _atom_site_label
  _atom_site_symmetry_multiplicity
  _atom_site_fract_x
  _atom_site_fract_y
  _atom_site_fract_z
  _atom_site_occupancy
  C   C1        1.0  0.18544166616962318  0.21803910485505967  0.741096317455373  1.0000
  C   C2        1.0  0.2296945150965925  0.22070606595986147  0.7617411419998715  1.0000
  C   C3        1.0  0.2579093378155854  0.2610287879059786  0.7684969327459057  1.0000
  C   C4        1.0  0.2423902410450756  0.2993227411298556  0.7543273327945584  1.0000
  C   C5        1.0  0.19850176773224107  0.2946938968354894  0.7334241451740238  1.0000
  C   C6        1.0  0.17329062838611925  0.2544527740511253  0.7261072221222241  1.0000
  H   H1        1.0  0.23801527478753204  0.19319587360122634  0.7745139665713994  1.0000
  H   H2        1.0  0.28854882809612453  0.2646525627838506  0.7859687357628375  1.0000
  H   H3        1.0  0.18551552232243806  0.32345133711027063  0.7223306805967298  1.0000
  H   H4        1.0  0.14075913045712496  0.2535860000702205  0.7088574498737605  1.0000
  C   C7        1.0  0.3807715067667403  0.33391638272349006  0.776603074256534  1.0000
  C   C8        1.0  0.3255704612580401  0.3594239250538991  0.778819345018155  1.0000
  C   C9        1.0  0.3315305629737172  0.40105420595860725  0.791961548049953  1.0000
  C   C10       1.0  0.3872635144398003  0.4152469535018781  0.8038159726246342  1.0000
  C   C11       1.0  0.43941565983734193  0.38835318368041266  0.8022839603222023  1.0000
  C   C12       1.0  0.43694085250395526  0.34866097912131505  0.7880356403711253  1.0000
  C   C13       1.0  0.26118835041539984  0.3489015651972408  0.7628008343039254  1.0000
  C   C14       1.0  0.20416029498966098  0.3622414489135905  0.7823314680830188  1.0000
  C   C15       1.0  0.1542101126061352  0.39022112799087894  0.7751941881075254  1.0000
  C   C16       1.0  0.11441990741078253  0.4081382922277651  0.7948237265016638  1.0000
  C   C17       1.0  0.12131701000274385  0.39560051775007316  0.8213866802566112  1.0000
  C   C18       1.0  0.16318441334096181  0.36287470885437234  0.8278760340804832  1.0000
  C   C19       1.0  0.20555189949802982  0.3472534063341066  0.8088802926072455  1.0000
  C   C20       1.0  0.31845120263441395  0.3586088678840078  0.7171109390761906  1.0000
  C   C21       1.0  0.3406162421073952  0.38241745958180956  0.6960624222253858  1.0000
  C   C22       1.0  0.32526036628826016  0.4271888363493091  0.6932385945427741  1.0000
  C   C23       1.0  0.287412506426821  0.44612267199855277  0.7134635790887142  1.0000
  C   C24       1.0  0.26406497062549944  0.4219267798607093  0.7341588651715011  1.0000
  C   C25       1.0  0.27799463115363615  0.3777172222586282  0.7363186190102392  1.0000
  C   C26       1.0  0.35645637842663985  0.45685010853490116  0.6704037392365644  1.0000
  C   C27       1.0  0.5277858557428188  0.5088794224605044  0.7124200344769127  1.0000
  C   C28       1.0  0.5283279954994704  0.47023740413734577  0.6965488714544847  1.0000
  C   C29       1.0  0.4730894736016761  0.4536029877562709  0.6859902991830464  1.0000
  C   C30       1.0  0.4169271104514757  0.47692044919276916  0.6871428407175507  1.0000
  C   C31       1.0  0.4167360837480427  0.5161871177787981  0.7029009698942127  1.0000
  C   C32       1.0  0.4710498211978278  0.5312040190228868  0.716317683694299  1.0000
  C   C33       1.0  0.31207884042752615  0.49453794367740844  0.6582808592781895  1.0000
  C   C34       1.0  0.2454319801310283  0.49199986988406064  0.657491640819361  1.0000
  C   C35       1.0  0.2101808769087565  0.526203157673228  0.6473932777771115  1.0000
  C   C36       1.0  0.2392975018757181  0.5621506354616403  0.6362533885845922  1.0000
  C   C37       1.0  0.3055206922291818  0.5639988925018773  0.6360010808931509  1.0000
  C   C38       1.0  0.340772853764831  0.5306281588991781  0.6464506562418866  1.0000
  C   C39       1.0  0.42710234081297377  0.43095792986008047  0.6281048593818017  1.0000
  C   C40       1.0  0.44502144292837714  0.39993304172371774  0.6089072717554108  1.0000
  C   C41       1.0  0.4052976998753904  0.3655511486917879  0.6014732779347824  1.0000
  C   C42       1.0  0.34772541408895774  0.3622698377551845  0.6144035425057697  1.0000
  C   C43       1.0  0.33029112405870564  0.39272636086453644  0.6346830255130611  1.0000
  C   C44       1.0  0.3708989012858609  0.4264524885653266  0.6428275177927886  1.0000
  H   H5        1.0  0.37898265712987705  0.3033015544038432  0.7644055112214924  1.0000
  H   H6        1.0  0.29185722665972824  0.4240916611619041  0.7946783972713937  1.0000
  H   H7        1.0  0.391362769875504  0.44698573973430633  0.8136034925910279  1.0000
  H   H8        1.0  0.4799568532109153  0.3285683964962701  0.7853712711495043  1.0000
  H   H9        1.0  0.14889167051395077  0.40272964270964834  0.7549530558693329  1.0000
  H   H10       1.0  0.07779042984698208  0.43195840748300385  0.7897069265192329  1.0000
  H   H11       1.0  0.16595309544329123  0.3496867038590277  0.8479294493962432  1.0000
  H   H12       1.0  0.2429709333688343  0.325810503849636  0.8151254125858022  1.0000
  H   H13       1.0  0.3334178930274832  0.3244295499598539  0.719196009838262  1.0000
  H   H14       1.0  0.37350272312387894  0.366476432374097  0.6826679115021465  1.0000
  H   H15       1.0  0.2787816762775921  0.48182288445828203  0.7144183113931283  1.0000
  H   H16       1.0  0.24029028955118012  0.43872434743304883  0.750486200500055  1.0000
  H   H17       1.0  0.571481164015248  0.4512373575035857  0.6940762560783594  1.0000
  H   H18       1.0  0.47297186074445996  0.42101698739140153  0.6763077392162925  1.0000
  H   H19       1.0  0.3750829994394023  0.5357845239344682  0.7048286006568248  1.0000
  H   H20       1.0  0.4709184952085274  0.5622065697149957  0.7274212405792508  1.0000
  H   H21       1.0  0.21999269891219778  0.4629517371326194  0.6652041823313407  1.0000
  H   H22       1.0  0.1583556114998285  0.5249466201993109  0.6486467423881923  1.0000
  H   H23       1.0  0.32948333009064734  0.5910409833955428  0.6271137947698201  1.0000
  H   H24       1.0  0.39337020059813055  0.532552701244738  0.6455746439372022  1.0000
  H   H25       1.0  0.45885999970987984  0.45757873350949757  0.6329431116728815  1.0000
  H   H26       1.0  0.49099881612661156  0.404054253149745  0.6000179671705486  1.0000
  H   H27       1.0  0.3148724799150467  0.33667632451674445  0.6074983856064023  1.0000
  H   H28       1.0  0.28521732632027447  0.38895081315666025  0.6441435547113468  1.0000
  C   C45       1.0  0.3243110933690065  0.26485479936865736  0.993442359665841  1.0000
  C   C46       1.0  0.3366129333304278  0.30363859455532094  0.979870224327827  1.0000
  C   C47       1.0  0.28664413946865575  0.3299891028839514  0.9724907289685498  1.0000
  C   C48       1.0  0.22507077836978065  0.318423194024859  0.9779183720268366  1.0000
  C   C49       1.0  0.21443500696705237  0.28190256723597984  0.9936664088958411  1.0000
  C   C50       1.0  0.26399795716993063  0.25474263171205486  0.00011741195061398813  1.0000
  H   H29       1.0  0.38483328808765666  0.312109269916732  0.9742831228085493  1.0000
  H   H30       1.0  0.29729692462383606  0.36117274116819725  0.9626345813100842  1.0000
  H   H31       1.0  0.16630765982053197  0.27194943645763514  0.9986398981095332  1.0000
  H   H32       1.0  0.25465051805918326  0.22483302324849913  0.010389362684575021  1.0000
  C   C51       1.0  0.14669284161746712  0.2734786861341078  0.9345012644836057  1.0000
  C   C52       1.0  0.11973235347356562  0.3065950501489997  0.950891172119637  1.0000
  C   C53       1.0  0.053505515495804845  0.3103607791921075  0.9510849444266641  1.0000
  C   C54       1.0  0.016780363791350394  0.28427354806341326  0.9344043783300924  1.0000
  C   C55       1.0  0.04474264716001697  0.25346212781351035  0.9170839599280253  1.0000
  C   C56       1.0  0.10998223257637252  0.2474456090455237  0.9185231230000068  1.0000
  C   C57       1.0  0.1647209323362746  0.34222928059339763  0.9652626182241375  1.0000
  C   C58       1.0  0.16749760083277762  0.3745651041489718  0.9399551475418024  1.0000
  C   C59       1.0  0.11776831468082985  0.40440613969609845  0.9366529444762177  1.0000
  C   C60       1.0  0.10796661368356472  0.4247738690686806  0.912669584558567  1.0000
  C   C61       1.0  0.15062409092372833  0.41869351962078855  0.8917583230919064  1.0000
  C   C62       1.0  0.20332097095730464  0.39258733452590155  0.8955308276943377  1.0000
  C   C63       1.0  0.21132706442283064  0.36997144424362627  0.9189833322291958  1.0000
  C   C64       1.0  0.09034887710496277  0.3552173938422348  0.007890507308539574  1.0000
  C   C65       1.0  0.05915574762393394  0.38447707384065677  0.024514556482228445  1.0000
  C   C66       1.0  0.07445966560065408  0.4293131357182416  0.02540066109457073  1.0000
  C   C67       1.0  0.13061475298190817  0.4417055472261062  0.013340353443673347  1.0000
  C   C68       1.0  0.16301204019161725  0.4122639438501303  0.9968091535004348  1.0000
  C   C69       1.0  0.13954617196355248  0.36908530622247404  0.9914864704417876  1.0000
  C   C70       1.0  0.02012017639232111  0.4647944584508791  0.032733731838622715  1.0000
  C   C71       1.0  0.9216197522063414  0.4547387716241325  0.9540096951858524  1.0000
  C   C72       1.0  0.9027217347197216  0.42932252102884055  0.9749815104984589  1.0000
  C   C73       1.0  0.9332675199318379  0.4320867268320389  0.9995663719525061  1.0000
  C   C74       1.0  0.9821898617324614  0.4627966500366491  0.004412698089711897  1.0000
  C   C75       1.0  0.00134299330071741  0.48737723876969474  0.9824700027804388  1.0000
  C   C76       1.0  0.9711519742717154  0.48399913201289513  0.9581535967100854  1.0000
  C   C77       1.0  0.0423665366042294  0.5137072380242069  0.041758273346097496  1.0000
  C   C78       1.0  0.09715246953055544  0.5219705734830229  0.05728226098510203  1.0000
  C   C79       1.0  0.114942866021817  0.5639849266709235  0.06510783634284767  1.0000
  C   C80       1.0  0.07754768575900897  0.5995185011432428  0.05807147944393076  1.0000
  C   C81       1.0  0.02250171815346258  0.592631339256163  0.04393417487708784  1.0000
  C   C82       1.0  0.005444738938584992  0.5507744697569877  0.03537993490645963  1.0000
  C   C83       1.0  0.9131290644008404  0.4725008303566243  0.05963175020780409  1.0000
  C   C84       1.0  0.8706836488073877  0.46137811588530125  0.07993545475347386  1.0000
  C   C85       1.0  0.8902728648323556  0.4336916997915909  0.10006825811794427  1.0000
  C   C86       1.0  0.9531323646046816  0.41999384366484344  0.10001759473350284  1.0000
  C   C87       1.0  0.9937312684356028  0.4287318487513058  0.07932386090942001  1.0000
  C   C88       1.0  0.9740021220761756  0.4545972917974139  0.058037165597894624  1.0000
  H   H33       1.0  0.19752558824948538  0.26807442963042005  0.933183209103516  1.0000
  H   H34       1.0  0.030700108249634983  0.3361807423628768  0.9629676274627867  1.0000
  H   H35       1.0  0.9650457995866735  0.2884718547431687  0.9354196644804524  1.0000
  H   H36       1.0  0.13101637300593036  0.2228372649279876  0.9044685753559568  1.0000
  H   H37       1.0  0.07750163909931546  0.40739452162655804  0.9506711598127002  1.0000
  H   H38       1.0  0.06523526312539496  0.4447445863698698  0.908951578417487  1.0000
  H   H39       1.0  0.2377387228580092  0.3866877466112036  0.8790924769815496  1.0000
  H   H40       1.0  0.2493473151511202  0.3465871396228092  0.9190055353060427  1.0000
  H   H41       1.0  0.07460873599068964  0.32194655443692327  0.006838888850612124  1.0000
  H   H42       1.0  0.01603744381682559  0.3726921525595514  0.03463310413979315  1.0000
  H   H43       1.0  0.14770633441669698  0.47587602840104626  0.01240176883151145  1.0000
  H   H44       1.0  0.20566573255801868  0.42300544409469615  0.9867006981505277  1.0000
  H   H45       1.0  0.8642743311720499  0.40573189264313037  0.9722081443541355  1.0000
  H   H46       1.0  0.9170085441640535  0.41135187343325597  0.01587352266574449  1.0000
  H   H47       1.0  0.04293349102600974  0.5078706554384317  0.9834408827771052  1.0000
  H   H48       1.0  0.9881730415575936  0.5041008790316989  0.9415053259980182  1.0000
  H   H49       1.0  0.12765493940585626  0.4953065354908802  0.06277247635086636  1.0000
  H   H50       1.0  0.15872967436169166  0.5680821060496163  0.0764475532269886  1.0000
  H   H51       1.0  0.9943043198149654  0.6209773134542029  0.038250187204296626  1.0000
  H   H52       1.0  0.962148967103104  0.5474976235680796  0.023858556484481097  1.0000
  H   H53       1.0  0.8976584109690073  0.49516646831418365  0.045213879488078534  1.0000
  H   H54       1.0  0.824014502576796  0.47596381467843096  0.07955194706248303  1.0000
  H   H55       1.0  0.9711755422165259  0.4027792624990017  0.11712728575167812  1.0000
  H   H56       1.0  0.041247354747369736  0.41478510279532294  0.0792693624480687  1.0000
  C   C89       1.0  0.8442391193392951  0.37102326576581623  0.9177621630026196  1.0000
  C   C90       1.0  0.8653708245975947  0.3291192314635024  0.9103503722588379  1.0000
  C   C91       1.0  0.8373711638694671  0.2936454440564441  0.921930286065231  1.0000
  C   C92       1.0  0.7903548907969792  0.2978466066526488  0.941656710612883  1.0000
  C   C93       1.0  0.7642114620004187  0.3395311521919195  0.9456371167530621  1.0000
  C   C94       1.0  0.7903691373638015  0.3758666544894322  0.9334234060257683  1.0000
  H   H57       1.0  0.9062057800498494  0.32493346138154666  0.8972969815344273  1.0000
  H   H58       1.0  0.8562815347181963  0.2622131867110405  0.916714581467755  1.0000
  H   H59       1.0  0.725741107184387  0.343910400622563  0.9597683659353102  1.0000
  H   H60       1.0  0.7709529122322212  0.4078912809892242  0.9379689813947759  1.0000
  C   C95       1.0  0.8083421403626802  0.2998030572446107  0.0021863350204331944  1.0000
  C   C96       1.0  0.7625597977684955  0.27198509151374345  0.9908223965979139  1.0000
  C   C97       1.0  0.719492461129186  0.25343446794262686  0.00811253807700818  1.0000
  C   C98       1.0  0.7202376456147637  0.2629600724178865  0.035309288752856105  1.0000
  C   C99       1.0  0.7668045041071735  0.289631502192329  0.04605961486978982  1.0000
  C   C100      1.0  0.8099037548416842  0.308285368094841  0.029056094928173293  1.0000
  C   C101      1.0  0.7676139723850431  0.25685924186999154  0.959360636705941  1.0000
  C   C102      1.0  0.815463023037757  0.21655256652775648  0.9613508397760304  1.0000
  C   C103      1.0  0.7929549710758209  0.17359979650602392  0.9636074797682821  1.0000
  C   C104      1.0  0.8319081966949129  0.13901365342239413  0.9705126366676495  1.0000
  C   C105      1.0  0.8959709869122162  0.14603997153447415  0.9745798366536843  1.0000
  C   C106      1.0  0.9205334831070415  0.18767006833134806  0.9713825935877393  1.0000
  C   C107      1.0  0.880575010205151  0.22245352681969222  0.9654483166850383  1.0000
  C   C108      1.0  0.6457997517936888  0.2614028555244501  0.9504491290442318  1.0000
  C   C109      1.0  0.5946843649839397  0.256049683316006  0.9339260029471194  1.0000
  C   C110      1.0  0.5980815784273134  0.23303726040439363  0.9087961568795591  1.0000
  C   C111      1.0  0.6579208997941076  0.21652852305210432  0.9021897322868583  1.0000
  C   C112      1.0  0.7098139555782091  0.22150041108801322  0.9190539783827995  1.0000
  C   C113      1.0  0.7054682053251462  0.2451408038585533  0.9432734982996394  1.0000
  C   C114      1.0  0.5385879699200283  0.22969755486897178  0.8888396277173125  1.0000
  C   C115      1.0  0.407315104017585  0.19066678857539196  0.9525503474985555  1.0000
  C   C116      1.0  0.3860064361006534  0.21975854762615565  0.9341500521771193  1.0000
  C   C117      1.0  0.42494680949868574  0.2305101919325366  0.9129380399422605  1.0000
  C   C118      1.0  0.4840961718630101  0.20941697560339884  0.9080513445744242  1.0000
  C   C119      1.0  0.49848838378494753  0.17435398671897073  0.9247399845171221  1.0000
  C   C120      1.0  0.4619320875434038  0.1664298480151494  0.9475788767463947  1.0000
  C   C121      1.0  0.5518053381097128  0.2007851684898979  0.8620183108863292  1.0000
  C   C122      1.0  0.5928006456668201  0.21586363553152083  0.842081966339398  1.0000
  C   C123      1.0  0.6033238664454671  0.19278243221090063  0.8186133141122877  1.0000
  C   C124      1.0  0.5727830342717909  0.15260530094729907  0.8142776587425593  1.0000
  C   C125      1.0  0.5350701459681664  0.13619476817797002  0.8338466432907518  1.0000
  C   C126      1.0  0.5258855279275813  0.15921829526780926  0.8576624709012856  1.0000
  C   C127      1.0  0.4713171396534945  0.2866150848258895  0.8642164154941665  1.0000
  C   C128      1.0  0.4564920083760966  0.3275817224465499  0.8559387047533581  1.0000
  C   C129      1.0  0.5001319764328137  0.3611727805238448  0.8593176093571407  1.0000
  C   C130      1.0  0.5554512837746135  0.353742154357685  0.87279084008011  1.0000
  C   C131      1.0  0.5665620002278012  0.3128490973419458  0.8826833200461431  1.0000
  C   C132      1.0  0.5238723497897738  0.27868666149481003  0.8791792708274054  1.0000
  H   H61       1.0  0.8417518091048604  0.31818699427502634  0.990792119674941  1.0000
  H   H62       1.0  0.6837248571962207  0.22995738351883713  0.0006825811794426428  1.0000
  H   H63       1.0  0.6849035922680928  0.24890976361460282  0.04865535639933882  1.0000
  H   H64       1.0  0.8444521478021826  0.33066676213255064  0.03770520259078336  1.0000
  H   H65       1.0  0.7426967952450821  0.16624288751740887  0.9629312951552192  1.0000
  H   H66       1.0  0.811558595448985  0.10618544586193882  0.9729125874286397  1.0000
  H   H67       1.0  0.9704999434765802  0.19312103983626863  0.9736150120416126  1.0000
  H   H68       1.0  0.8988070217421347  0.25546063487958076  0.965956968990984  1.0000
  H   H69       1.0  0.638259625884405  0.28026536987814493  0.9688292397503526  1.0000
  H   H70       1.0  0.5502728681748439  0.2683976525123687  0.9415154183056759  1.0000
  H   H71       1.0  0.6696262606437983  0.2015014305737425  0.8829437015837107  1.0000
  H   H72       1.0  0.7554507408179264  0.2083245489668933  0.9125767353281166  1.0000
  H   H73       1.0  0.33999820875935455  0.23724984101953198  0.9369637875520735  1.0000
  H   H74       1.0  0.40635695986041187  0.2569790078352743  0.9019999969028943  1.0000
  H   H75       1.0  0.5428239259550441  0.15680832786911753  0.9215730183741501  1.0000
  H   H76       1.0  0.4784215234682651  0.14418067811523338  0.9626547659253996  1.0000
  H   H77       1.0  0.6168470202674435  0.2470173093244058  0.8441630001784064  1.0000
  H   H78       1.0  0.6320980237720134  0.20485426286780825  0.8025887480134635  1.0000
  H   H79       1.0  0.5088935615755187  0.10661900555241842  0.8307765633012932  1.0000
  H   H80       1.0  0.49449603373700524  0.1441257667552117  0.8717856462374076  1.0000
  H   H81       1.0  0.4402355501716299  0.259535077618389  0.8587140893592131  1.0000
  H   H82       1.0  0.41248176557409494  0.332998826506429  0.8451419540211991  1.0000
  H   H83       1.0  0.592815139458899  0.3777211114954723  0.8740321939220016  1.0000
  H   H84       1.0  0.6120323570920565  0.3094355909868755  0.8920590738601044  1.0000
  C   C133      1.0  0.6218855401346901  0.45989637122885435  0.7501148035782533  1.0000
  C   C134      1.0  0.5783710216861783  0.4293673470705912  0.758549954318521  1.0000
  C   C135      1.0  0.5892284338923575  0.3847776990242965  0.754010434334108  1.0000
  C   C136      1.0  0.6389220422906604  0.370174274050891  0.7381453266962746  1.0000
  C   C137      1.0  0.6842222556785144  0.40129826609539243  0.7308485882597903  1.0000
  C   C138      1.0  0.6766987849403274  0.44561712096961625  0.7380464220812296  1.0000
  H   H85       1.0  0.534313126391236  0.44044996058764246  0.7690943973592388  1.0000
  H   H86       1.0  0.5532154887975286  0.36302892483977384  0.7618198619996013  1.0000
  H   H87       1.0  0.7241496794295568  0.39086670812812696  0.718663135993938  1.0000
  H   H88       1.0  0.7110622163570477  0.47012819476676854  0.7320536097941143  1.0000
  C   C139      1.0  0.6100092420688202  0.3539194869240228  0.680776613047102  1.0000
  C   C140      1.0  0.6438301357615818  0.321351299734113  0.6942781022315125  1.0000
  C   C141      1.0  0.6713851834083843  0.287703178752915  0.6787440222848504  1.0000
  C   C142      1.0  0.663469804994039  0.2847145086542075  0.6510466931491826  1.0000
  C   C143      1.0  0.6290661081962531  0.3167551017272848  0.6386614131917087  1.0000
  C   C144      1.0  0.605145400642135  0.3527141987820591  0.6531761700649478  1.0000
  C   C145      1.0  0.64483412285849  0.32023450731856135  0.7261879605834853  1.0000
  C   C146      1.0  0.5858914886516315  0.2869655909881719  0.7307234436448353  1.0000
  C   C147      1.0  0.5955000329067831  0.24253713966134666  0.7344495236320415  1.0000
  C   C148      1.0  0.5488511952701093  0.21131085011336512  0.7318416713333035  1.0000
  C   C149      1.0  0.48866280048154925  0.2241177426210037  0.7255703113548368  1.0000
  C   C150      1.0  0.4751499458924826  0.26847426987391715  0.7234327605929456  1.0000
  C   C151      1.0  0.5233971047622934  0.2999724274099981  0.7252352467406028  1.0000
  C   C152      1.0  0.7662231978197124  0.29515129691623265  0.7261253882760079  1.0000
  C   C153      1.0  0.8149527497765103  0.27093321359517747  0.7369685636233922  1.0000
  C   C154      1.0  0.811488892871496  0.2570084140842048  0.763263061994646  1.0000
  C   C155      1.0  0.7587497272218391  0.27117380090708976  0.7781855480972543  1.0000
  C   C156      1.0  0.7093266286646775  0.2942500239720864  0.7668195912132034  1.0000
  C   C157      1.0  0.7091916521148383  0.3028103836621043  0.7395542128452833  1.0000
  C   C158      1.0  0.8539192093432438  0.21786657549865943  0.7745906681095976  1.0000
  C   C159      1.0  0.029971813343919962  0.18268984112624934  0.7301663482621328  1.0000
  C   C160      1.0  0.015159809714917927  0.2257442122536882  0.7377234682361847  1.0000
  C   C161      1.0  0.9574442764310237  0.2362456208369131  0.7492408097351003  1.0000
  C   C162      1.0  0.9143458917576088  0.20368673634671608  0.7558714558661794  1.0000
  C   C163      1.0  0.9307022794725462  0.1604238785728734  0.748635271275641  1.0000
  C   C164      1.0  0.9873412882801912  0.15053775983183307  0.7360118128574464  1.0000
  C   C165      1.0  0.8019862477722491  0.17957791040171356  0.7755998988753631  1.0000
  C   C166      1.0  0.7759861908131557  0.16750024088654258  0.8002110003293199  1.0000
  C   C167      1.0  0.7261118867167143  0.13876311336637775  0.8006631357123829  1.0000
  C   C168      1.0  0.6987969193458305  0.12213559834410154  0.777588083483921  1.0000
  C   C169      1.0  0.7211208147554257  0.1344236211563389  0.7529446866454597  1.0000
  C   C170      1.0  0.7733064544470242  0.16265056070456158  0.7519758251103248  1.0000
  C   C171      1.0  0.9184052567859413  0.19854140441459622  0.8162335479666127  1.0000
  C   C172      1.0  0.955442387772806  0.2085661751028259  0.8379824709688587  1.0000
  C   C173      1.0  0.9631342815204945  0.2515060370221193  0.8472916155522795  1.0000
  C   C174      1.0  0.9332413703604504  0.28462604750163634  0.8344077755965174  1.0000
  C   C175      1.0  0.8961358517943476  0.2751953991416901  0.8123096587493165  1.0000
  C   C176      1.0  0.8885721633953945  0.23163214843659946  0.8026129695518417  1.0000
  H   H89       1.0  0.5824961084721183  0.37925380466606673  0.6913452776261981  1.0000
  H   H90       1.0  0.6917797121719025  0.25876664881491723  0.6879441699455684  1.0000
  H   H91       1.0  0.6840937977379419  0.2568357223255426  0.6401167239559425  1.0000
  H   H92       1.0  0.579864568390492  0.37815101890334235  0.6433260777910766  1.0000
  H   H93       1.0  0.6429539344511903  0.2302039121851394  0.736431652856005  1.0000
  H   H94       1.0  0.5598375058390506  0.17618069590289456  0.7323018805624927  1.0000
  H   H95       1.0  0.4292184956503122  0.2800216330131665  0.7181928344570913  1.0000
  H   H96       1.0  0.5117296970047235  0.33394324626474314  0.7205726006027663  1.0000
  H   H97       1.0  0.7742941077463726  0.30545563978138174  0.7057046129615092  1.0000
  H   H98       1.0  0.8528278092571424  0.25987567201722883  0.7236063482846573  1.0000
  H   H99       1.0  0.7567766632420344  0.2641451301953316  0.7993491172553563  1.0000
  H   H100      1.0  0.6688877075570795  0.3018611119870688  0.7791685388631098  1.0000
  H   H101      1.0  0.04711576885304747  0.2532190307369833  0.7346877020927622  1.0000
  H   H102      1.0  0.9463273671627092  0.2698022866487101  0.7558250312509543  1.0000
  H   H103      1.0  0.9000080010609669  0.13306517430243886  0.7533847112593334  1.0000
  H   H104      1.0  0.9981365385091755  0.11619459041167672  0.7312179667200606  1.0000
  H   H105      1.0  0.792548629378282  0.18293054269747486  0.8188393818038192  1.0000
  H   H106      1.0  0.7068097048319514  0.1312482112982369  0.8201190864148097  1.0000
  H   H107      1.0  0.7003035402920041  0.12512035307637862  0.7335654374812309  1.0000
  H   H108      1.0  0.7893101568474233  0.17286168206764888  0.7328993451758258  1.0000
  H   H109      1.0  0.9195518875941721  0.1647752367863019  0.8079174864567052  1.0000
  H   H110      1.0  0.9800732077794556  0.1817417720882903  0.8474692401670542  1.0000
  H   H111      1.0  0.9391619752389905  0.31890679020394286  0.8411898063424613  1.0000
  H   H112      1.0  0.8768883910303046  0.3040442199235055  0.802336440322022  1.0000
  C   C177      1.0  0.7245362806288138  0.9210806725826292  0.7003254129799792  1.0000
  C   C178      1.0  0.716128141987597  0.9630127143681223  0.7103127606379944  1.0000
  C   C179      1.0  0.6552923147427142  0.9799575718014872  0.7149511852374526  1.0000
  C   C180      1.0  0.6012446179680557  0.9551314378339222  0.7091561821804271  1.0000
  C   C181      1.0  0.6121391668013085  0.9110336802548441  0.7013810683609699  1.0000
  C   C182      1.0  0.6716809661930673  0.8947145062036619  0.6965125391469174  1.0000
  H   H113      1.0  0.7555415484505852  0.984032212347338  0.7172219544604248  1.0000
  H   H114      1.0  0.6517754478544361  0.012374626333107264  0.7240827052060985  1.0000
  H   H115      1.0  0.5744717800317153  0.8870626418261517  0.6996673945207003  1.0000
  H   H116      1.0  0.675230466065203  0.8608940494005071  0.689585179170703  1.0000
  C   C183      1.0  0.49441024002645984  0.9440805554634287  0.6677272592457545  1.0000
  C   C184      1.0  0.48363812028789155  0.947282856651032  0.6955093637657465  1.0000
  C   C185      1.0  0.42923289392922387  0.9277599861037052  0.7051939421940319  1.0000
  C   C186      1.0  0.38693901254729296  0.9061715303805422  0.6881217945603432  1.0000
  C   C187      1.0  0.400541448042466  0.9024071543041873  0.6609290808075581  1.0000
  C   C188      1.0  0.45392718579776  0.9221234350382258  0.6506430008428764  1.0000
  C   C189      1.0  0.5309214122561782  0.9733291605807274  0.71523780677493  1.0000
  C   C190      1.0  0.51101460681333  0.0228605891256346  0.7076605021855626  1.0000
  C   C191      1.0  0.4519139375911768  0.04015431578501594  0.7160573021567315  1.0000
  C   C192      1.0  0.43315007852094517  0.08260064062700682  0.7105832344832196  1.0000
  C   C193      1.0  0.4757961152690591  0.11068965229709894  0.6990618560612409  1.0000
  C   C194      1.0  0.5342408569701845  0.09475878274658406  0.6895892160937661  1.0000
  C   C195      1.0  0.5500935231945204  0.05042850744071914  0.6927804037751166  1.0000
  C   C196      1.0  0.5239424928114994  0.9245305712011218  0.758800243548431  1.0000
  C   C197      1.0  0.5313653464405551  0.9207967173078606  0.7865359234531978  1.0000
  C   C198      1.0  0.5350140256450502  0.9584786524914727  0.8035495357024722  1.0000
  C   C199      1.0  0.5347556773980905  0.9992274563851854  0.7915699665128361  1.0000
  C   C200      1.0  0.5352488845204836  0.002704952006951533  0.7647143358358167  1.0000
  C   C201      1.0  0.5269935910407673  0.9665486143341657  0.7474968589718577  1.0000
  C   C202      1.0  0.5321988755280065  0.9588593894498078  0.8350153325175081  1.0000
  C   C203      1.0  0.33487195827136396  0.005234739002754063  0.8419467294167855  1.0000
  C   C204      1.0  0.3465563074744066  0.9608657650224713  0.8357117017458863  1.0000
  C   C205      1.0  0.40883043364771976  0.9449289176794906  0.8330130186782295  1.0000
  C   C206      1.0  0.45914133621842806  0.9733631847306959  0.8385355294284982  1.0000
  C   C207      1.0  0.4447608984571746  0.017360579403908227  0.8441428155630912  1.0000
  C   C208      1.0  0.38424629541829675  0.03385548614572231  0.8458908032493969  1.0000
  C   C209      1.0  0.5799244539650481  0.9936215148668048  0.8512316524618279  1.0000
  C   C210      1.0  0.6338194209434053  0.010360455864489415  0.8387373755816513  1.0000
  C   C211      1.0  0.6697471329333907  0.04333339297868943  0.8503394924648913  1.0000
  C   C212      1.0  0.6533112829907937  0.06160511500751342  0.8754410800710101  1.0000
  C   C213      1.0  0.6043921349119619  0.042109863191620356  0.8892392831005558  1.0000
  C   C214      1.0  0.5698105701484956  0.007793462658402417  0.877558446217586  1.0000
  C   C215      1.0  0.5163548272468329  0.8867568304667742  0.8629387293447074  1.0000
  C   C216      1.0  0.5411810898414864  0.8543341035412184  0.8789269631359641  1.0000
  C   C217      1.0  0.6050612073911807  0.8523477862629036  0.8834341877358727  1.0000
  C   C218      1.0  0.6450648834275641  0.8740450818508306  0.8669352831771386  1.0000
  C   C219      1.0  0.6207837401379446  0.9034578484015608  0.849027492469396  1.0000
  C   C220      1.0  0.5560261199614167  0.9138852488641901  0.8482988278565134  1.0000
  H   H117      1.0  0.5366526825795761  0.9590898692610433  0.6597684654269279  1.0000
  H   H118      1.0  0.4168270616618251  0.9295882112475581  0.7261556651989809  1.0000
  H   H119      1.0  0.3467219572790666  0.891294925860112  0.6973300160671874  1.0000
  H   H120      1.0  0.4657346779842566  0.9228440822187456  0.6299335855293688  1.0000
  H   H121      1.0  0.4203734493468448  0.01917908419271752  0.7275463851942058  1.0000
  H   H122      1.0  0.3866651970627385  0.09415786247484308  0.7171008467685329  1.0000
  H   H123      1.0  0.5652496166880097  0.1158079122212097  0.6782030745944001  1.0000
  H   H124      1.0  0.5947589584910722  0.038713059902703684  0.6839112838055696  1.0000
  H   H125      1.0  0.5194667442625397  0.8954654953897979  0.7459123666696059  1.0000
  H   H126      1.0  0.5285170717475172  0.8888974926369144  0.7955120218839159  1.0000
  H   H127      1.0  0.5340514668403367  0.029523689184982826  0.8036444033944542  1.0000
  H   H128      1.0  0.5432300347666106  0.03497693295327231  0.7569452774009541  1.0000
  H   H129      1.0  0.30638348787751585  0.9386570652432803  0.8333359725232744  1.0000
  H   H130      1.0  0.4189003144798719  0.9110356252795195  0.827821535619132  1.0000
  H   H131      1.0  0.48223257040826983  0.041117833569047635  0.8462399970943517  1.0000
  H   H132      1.0  0.3768161496507185  0.0680572154005199  0.8494190740065132  1.0000
  H   H133      1.0  0.6464713276558072  0.99939043831024  0.8186213879584138  1.0000
  H   H134      1.0  0.7091904814553234  0.05595955623349602  0.8389372032732728  1.0000
  H   H135      1.0  0.5888446122644264  0.0562106432755507  0.9083924645732528  1.0000
  H   H136      1.0  0.5282682137163199  0.998057947169511  0.8881775723349704  1.0000
  H   H137      1.0  0.464642050322886  0.8913016608612908  0.8646402924157879  1.0000
  H   H138      1.0  0.5079667906484724  0.8384421868100789  0.892491024627852  1.0000
  H   H139      1.0  0.695849793098759  0.8726906415575838  0.8707178800872277  1.0000
  H   H140      1.0  0.6547912422577491  0.921012121293417  0.836801670972913  1.0000
  C   C221      1.0  0.6256036265917797  0.887282269186115  0.03769712874465725  1.0000
  C   C222      1.0  0.6625677872017065  0.9172139135182391  0.05157808869699565  1.0000
  C   C223      1.0  0.7244968662862921  0.9250187148073563  0.04406335641510584  1.0000
  C   C224      1.0  0.7510009484781804  0.9045404355007431  0.02191477802961672  1.0000
  C   C225      1.0  0.7143000874615613  0.8717956683289164  0.00884322115142222  1.0000
  C   C226      1.0  0.651786577289623  0.86475592254809  0.01612986728024901  1.0000
  H   H141      1.0  0.6400617848011634  0.9355677378544659  0.06861995940771148  1.0000
  H   H142      1.0  0.7516353594834968  0.9495229724397679  0.05602475945095842  1.0000
  H   H143      1.0  0.7340782600217477  0.8511220456085546  0.9925946058225982  1.0000
  H   H144      1.0  0.6245479385557365  0.8393856532470251  0.0054057811632250985  1.0000
  C   C227      1.0  0.8810684002463386  0.8829175931019049  0.05730446406194889  1.0000
  C   C228      1.0  0.8558717419143823  0.8745668655829367  0.031910199533758066  1.0000
  C   C229      1.0  0.851762149904601  0.8308304276996561  0.02302291341042717  1.0000
  C   C230      1.0  0.8530766704078155  0.7974238731374736  0.040835836426188044  1.0000
  C   C231      1.0  0.8626631254722181  0.8075778108566599  0.0675320086422162  1.0000
  C   C232      1.0  0.8842630575572634  0.8489255343249587  0.07535556553843037  1.0000
  C   C233      1.0  0.8221484848574343  0.9122489974319791  0.014745202669618873  1.0000
  C   C234      1.0  0.849088867848707  0.9615576908591033  0.019359405730698498  1.0000
  C   C235      1.0  0.8115901078579372  0.9992898920548888  0.016345842664122756  1.0000
  C   C236      1.0  0.8380263427884224  0.04071141258360056  0.014757313438807929  1.0000
  C   C237      1.0  0.9026817418009805  0.045804194932509645  0.015435516513402359  1.0000
  C   C238      1.0  0.9404397002455294  0.008703533802053132  0.017024045738717186  1.0000
  C   C239      1.0  0.9150678513593442  0.9679699498374473  0.021486864184932175  1.0000
  C   C240      1.0  0.8973260992209372  0.8978171929761846  0.974456710500261  1.0000
  C   C241      1.0  0.9180961220625647  0.9099574687416104  0.9499828644304482  1.0000
  C   C242      1.0  0.8793194403457691  0.9334791669064908  0.93314889525748  1.0000
  C   C243      1.0  0.8153469416143804  0.9352013795004694  0.9394828275434242  1.0000
  C   C244      1.0  0.7930900066555697  0.9245376152591229  0.9645985443802638  1.0000
  C   C245      1.0  0.8357199300414065  0.9075781536589721  0.9830210427785468  1.0000
  C   C246      1.0  0.9053943503383077  0.9591015946260573  0.9082370430353249  1.0000
  C   C247      1.0  0.07993947631336391  0.031953419812179584  0.9225358245246903  1.0000
  C   C248      1.0  0.03792402212041801  0.026230691333404943  0.9435621382986482  1.0000
  C   C249      1.0  0.9838029346452731  0.0020864869881049852  0.9387824213919829  1.0000
  C   C250      1.0  0.9707106996998607  0.9831285571026367  0.9138241445546027  1.0000
  C   C251      1.0  0.011537050903499546  0.9912615919454533  0.8929956400107347  1.0000
  C   C252      1.0  0.06762626610327782  0.014075356829344354  0.8969982492277607  1.0000
  C   C253      1.0  0.8664657617900952  0.002042127122936721  0.9006213876768587  1.0000
  C   C254      1.0  0.8385174481647226  0.029389823592534503  0.9201035783791955  1.0000
  C   C255      1.0  0.8034878154983194  0.06581345535940031  0.9133033814794678  1.0000
  C   C256      1.0  0.7974089644918182  0.07678964317569381  0.886746483109115  1.0000
  C   C257      1.0  0.8286794848644897  0.05247867485252278  0.867316772406598  1.0000
  C   C258      1.0  0.864260000307611  0.016182105997548213  0.8745549754586681  1.0000
  C   C259      1.0  0.8463574634565544  0.9083300278026136  0.8733822493088486  1.0000
  C   C260      1.0  0.8429968506631795  0.8720274486532185  0.8566431478278623  1.0000
  C   C261      1.0  0.8931277835823761  0.8436864245470337  0.853486273992548  1.0000
  C   C262      1.0  0.9508603119573378  0.8543970317116044  0.865058113952815  1.0000
  C   C263      1.0  0.9553982313792851  0.8920287921576987  0.8813693015891165  1.0000
  C   C264      1.0  0.9033501989190824  0.9192562751515087  0.8863427908028088  1.0000
  H   H145      1.0  0.8905965652284168  0.9158839664221173  0.06481717788230723  1.0000
  H   H146      1.0  0.83511792477898  0.822175601693264  0.0035427411696220545  1.0000
  H   H147      1.0  0.8368809470824632  0.7646681016183335  0.03405178721871227  1.0000
  H   H148      1.0  0.8935467145265976  0.8579760788286557  0.09586360090161214  1.0000
  H   H149      1.0  0.7615409295215  0.9948601950898392  0.013168784213493101  1.0000
  H   H150      1.0  0.8079408918429124  0.06908062433361839  0.01198596575601596  1.0000
  H   H151      1.0  0.9914060203391237  0.010960824577645134  0.015617178051240188  1.0000
  H   H152      1.0  0.9484497804378215  0.9405930065021969  0.023511381101057882  1.0000
  H   H153      1.0  0.9311813988140794  0.88451106407795  0.9887676027588154  1.0000
  H   H154      1.0  0.9682958393703307  0.9080172121935189  0.9457461136757647  1.0000
  H   H155      1.0  0.7797943359261584  0.9483996170304028  0.9254121322071219  1.0000
  H   H156      1.0  0.745023914919019  0.9322395956117051  0.9697718612855776  1.0000
  H   H157      1.0  0.04664180486916014  0.04178497363968536  0.9629454243859399  1.0000
  H   H158      1.0  0.9524360888846782  0.0002281910281556332  0.9558121813335095  1.0000
  H   H159      1.0  0.0001274631135541604  0.9789219345469432  0.8728776339259658  1.0000
  H   H160      1.0  0.10197919151485425  0.01770979408909712  0.8809817569750625  1.0000
  H   H161      1.0  0.8447854314498503  0.022509196951236543  0.941325682921712  1.0000
  H   H162      1.0  0.7780750995879047  0.0855306929215368  0.9286376337345082  1.0000
  H   H163      1.0  0.8269752595801311  0.06171187779624887  0.8464721201704779  1.0000
  H   H164      1.0  0.8907724376381388  0.9986055715971258  0.8585808708981321  1.0000
  H   H165      1.0  0.8023626566056222  0.9284882756358481  0.8764281077599287  1.0000
  H   H166      1.0  0.7989588135015283  0.8626034519822565  0.8463187170940815  1.0000
  H   H167      1.0  0.9910030438125086  0.8322708274763029  0.8635059170350676  1.0000
  H   H168      1.0  0.9999377159972007  0.8986129122596117  0.8911810430938885  1.0000
  C   C265      1.0  0.24138902328765513  0.010948446321650263  0.9259147291284732  1.0000
  C   C266      1.0  0.21734227577486998  0.9688106263727831  0.9245906183637888  1.0000
  C   C267      1.0  0.25662634983924903  0.9331168198157948  0.9302180891136972  1.0000
  C   C268      1.0  0.3198746017495218  0.9397180643779174  0.9375451044731545  1.0000
  C   C269      1.0  0.3417996606779745  0.982556570581347  0.9404153567709914  1.0000
  C   C270      1.0  0.3035973296435985  0.017579789468411322  0.9347031106367588  1.0000
  H   H169      1.0  0.16923536258163416  0.9630530848787225  0.9185412891537905  1.0000
  H   H170      1.0  0.23703583284899568  0.899230455602635  0.9273902245080222  1.0000
  H   H171      1.0  0.38933341783180186  0.9876118384428126  0.9479361444374758  1.0000
  H   H172      1.0  0.32362329027686615  0.05006600865921973  0.9368911229369384  1.0000
  C   C271      1.0  0.47274262212107476  0.9265736090375261  0.9299980768067602  1.0000
  C   C272      1.0  0.43644028250389394  0.9008885867147327  0.9473608829009895  1.0000
  C   C273      1.0  0.46838712262765303  0.8695625053030155  0.9625659536180121  1.0000
  C   C274      1.0  0.5329100896889996  0.8633882136534067  0.9598672705503553  1.0000
  C   C275      1.0  0.5677479070443227  0.8883255044085689  0.9426094244557656  1.0000
  C   C276      1.0  0.5370058011566441  0.9210386340064634  0.9290877506560398  1.0000
  C   C277      1.0  0.36160746652436704  0.8960892513760655  0.9431806490691889  1.0000
  C   C278      1.0  0.3578762160311609  0.8612558399673568  0.9180548399246916  1.0000
  C   C279      1.0  0.370809172924385  0.8163259988184266  0.9222108522181138  1.0000
  C   C280      1.0  0.3765136966474605  0.7866605535676372  0.9013460153666782  1.0000
  C   C281      1.0  0.3660680235233763  0.7991381066078188  0.8754653016093885  1.0000
  C   C282      1.0  0.35206485164492024  0.8433619891442721  0.8707622862409213  1.0000
  C   C283      1.0  0.34753701212445703  0.8739888095821052  0.8916210677077622  1.0000
  C   C284      1.0  0.3396613524094123  0.9073137830253237  0.9942033196632283  1.0000
  C   C285      1.0  0.31820016800104584  0.8951389897967398  0.01885680880934726  1.0000
  C   C286      1.0  0.28307469165005417  0.8564233406961196  0.021345571877725122  1.0000
  C   C287      1.0  0.26951567247009156  0.8324235972309205  0.9981615227265604  1.0000
  C   C288      1.0  0.2874648917101292  0.8463611389073098  0.9732012274276488  1.0000
  C   C289      1.0  0.3287931490224627  0.8817190804292223  0.9704662120524243  1.0000
  C   C290      1.0  0.2668124198486289  0.8389172262840652  0.05080299946888789  1.0000
  C   C291      1.0  0.47081067135030813  0.8298530349571616  0.0629783594270823  1.0000
  C   C292      1.0  0.4371937823231255  0.8605739888331853  0.07748504245419552  1.0000
  C   C293      1.0  0.3719737432717875  0.8622947936151847  0.0756078732298715  1.0000
  C   C294      1.0  0.33766244714902105  0.8307432891387316  0.06044519020501116  1.0000
  C   C295      1.0  0.37267659351434385  0.7966638381539045  0.047686494864203954  1.0000
  C   C296      1.0  0.43851718788834526  0.7964985248739301  0.0486674671685281  1.0000
  C   C297      1.0  0.22065011560967185  0.7965784862298699  0.05304349176888712  1.0000
  C   C298      1.0  0.16626954232495555  0.7920767213755648  0.03740445182258534  1.0000
  C   C299      1.0  0.13560829060006224  0.7520548030593123  0.03421326414123471  1.0000
  C   C300      1.0  0.15530075302530508  0.7155907895135901  0.047934765632582144  1.0000
  C   C301      1.0  0.20665380336624953  0.7205492644437436  0.06521885172708175  1.0000
  C   C302      1.0  0.2356983234158818  0.7607465964632838  0.0690963163291527  1.0000
  C   C303      1.0  0.23221901351428093  0.8785076493301016  0.09541348398008073  1.0000
  C   C304      1.0  0.2094471375799236  0.9155097667653501  0.10958389131604063  1.0000
  C   C305      1.0  0.17724745728804395  0.9493753249381853  0.09637608828446785  1.0000
  C   C306      1.0  0.17013033745971348  0.9445229063241084  0.06865629171527887  1.0000
  C   C307      1.0  0.19434062744752967  0.9081058337019364  0.05486212560879644  1.0000
  C   C308      1.0  0.2298087270233397  0.876239552546946  0.06743915941176581  1.0000
  H   H173      1.0  0.45254783159802364  0.9485564044456903  0.9150311845504583  1.0000
  H   H174      1.0  0.4444604524131691  0.8458743954928357  0.9752963904973779  1.0000
  H   H175      1.0  0.5560832424075856  0.8356918207981753  0.9688716274425149  1.0000
  H   H176      1.0  0.5656970379164191  0.938506489195034  0.9145003291676657  1.0000
  H   H177      1.0  0.37834650202883646  0.8049012309610581  0.9425085013791891  1.0000
  H   H178      1.0  0.3893869783277711  0.7526482228997733  0.9045513322787494  1.0000
  H   H179      1.0  0.3459662436475306  0.8534544341463755  0.8503415109264227  1.0000
  H   H180      1.0  0.3394291570075606  0.9078843561045951  0.8863205877259619  1.0000
  H   H181      1.0  0.36966943654814866  0.9351616916970812  0.9928045258218773  1.0000
  H   H182      1.0  0.330702042106252  0.9153611166481467  0.036134839519252226  1.0000
  H   H183      1.0  0.24484377931097226  0.8016840383518717  0.9992131411844881  1.0000
  H   H184      1.0  0.27231392194991905  0.8269184513348755  0.955995861332879  1.0000
  H   H185      1.0  0.4600544476442385  0.8895450564376266  0.08639655011590452  1.0000
  H   H186      1.0  0.35069791389124083  0.892593977422363  0.08289048243563513  1.0000
  H   H187      1.0  0.3499220944237651  0.7726018326513813  0.034849079523667115  1.0000
  H   H188      1.0  0.46183310547276263  0.7710738671616924  0.03708351643907193  1.0000
  H   H189      1.0  0.1511619523115053  0.8190855452643656  0.024978802634480823  1.0000
  H   H190      1.0  0.0977812055814603  0.7495877817467097  0.019101042654662503  1.0000
  H   H191      1.0  0.22437820421381804  0.6923375537034215  0.07572090707563728  1.0000
  H   H192      1.0  0.2745915073282903  0.7613028735790636  0.08301562705059018  1.0000
  H   H193      1.0  0.2540428079079635  0.852843288860099  0.10731473686229354  1.0000
  H   H194      1.0  0.21437073768037532  0.916316882692879  0.13131343708758395  1.0000
  H   H195      1.0  0.14277747832047408  0.9704375198320844  0.05879812559528186  1.0000
  H   H196      1.0  0.18669707228041116  0.9056065484372701  0.033389731836370284  1.0000
  C   C309      1.0  0.20022796371533183  0.987132071402806  0.8051259541585979  1.0000
  C   C310      1.0  0.15736251779032165  0.9628753932688893  0.8193500525712964  1.0000
  C   C311      1.0  0.13557096467866614  0.9230744648011412  0.8094777572205787  1.0000
  C   C312      1.0  0.1560681631413855  0.905867201102797  0.7845840711522073  1.0000
  C   C313      1.0  0.1997390616036757  0.9312796197382277  0.7701884035093286  1.0000
  C   C314      1.0  0.22266201581249612  0.9711249308210713  0.7806420157811274  1.0000
  H   H197      1.0  0.13944802036498774  0.9750911836488187  0.8386808586587684  1.0000
  H   H198      1.0  0.10213017113647384  0.9060124883585295  0.8215966002558903  1.0000
  H   H199      1.0  0.21997540063311727  0.9176508042273291  0.7516125020346492  1.0000
  H   H200      1.0  0.25947393949534686  0.9864584678693201  0.769270003512482  1.0000
  C   C315      1.0  0.020167570141702784  0.8669745770972282  0.7844125019220272  1.0000
  C   C316      1.0  0.07301444147679903  0.8389362764002906  0.7854358619185133  1.0000
  C   C317      1.0  0.06233979520770161  0.7960833219393192  0.7940506557350875  1.0000
  C   C318      1.0  0.0028340560025330586  0.782790814069467  0.801712735708779  1.0000
  C   C319      1.0  0.9509840122779176  0.8107955409083126  0.7991553449483293  1.0000
  C   C320      1.0  0.9598535394597222  0.8531994672194171  0.7907201942080614  1.0000
  C   C321      1.0  0.14054033496938473  0.8561004652598366  0.7748994927239218  1.0000
  C   C322      1.0  0.20076951987776961  0.8310081610545993  0.7866974003757202  1.0000
  C   C323      1.0  0.2562644023145365  0.8242005091359514  0.7717264711963553  1.0000
  C   C324      1.0  0.30962719929912524  0.8056353045275528  0.7829915050038294  1.0000
  C   C325      1.0  0.3095590593650255  0.7943804977642156  0.8096856587583262  1.0000
  C   C326      1.0  0.253624451778364  0.7993118059618675  0.8241136217857096  1.0000
  C   C327      1.0  0.20156657596090713  0.8181477711562627  0.8128243664398569  1.0000
  C   C328      1.0  0.10939505986526017  0.8787148887292701  0.726129425199071  1.0000
  C   C329      1.0  0.09536728627540297  0.8692359217676016  0.699332329906466  1.0000
  C   C330      1.0  0.09597249976693088  0.8258302050715054  0.6898718007081804  1.0000
  C   C331      1.0  0.11235752246283494  0.7933324407793579  0.7081045637224996  1.0000
  C   C332      1.0  0.1288556067943402  0.8033657649128711  0.7339428897876272  1.0000
  C   C333      1.0  0.12869221009949003  0.8460508918203156  0.7434518620626696  1.0000
  C   C334      1.0  0.07325272119608184  0.8124324452643481  0.6598330561959369  1.0000
  C   C335      1.0  0.8730424792635979  0.8473348832076676  0.6731589392271041  1.0000
  C   C336      1.0  0.9120307576946505  0.8746800682392427  0.6586139054308922  1.0000
  C   C337      1.0  0.9739715482924175  0.8639217374944249  0.6540178685235962  1.0000
  C   C338      1.0  0.9989278565868324  0.822820560331444  0.6620271238807109  1.0000
  C   C339      1.0  0.959048624162958  0.7957209062705409  0.6760897453708872  1.0000
  C   C340      1.0  0.8962120262082305  0.8072833030406051  0.6808573515083631  1.0000
  C   C341      1.0  0.09600079529354767  0.7623976211479184  0.6514766254553986  1.0000
  C   C342      1.0  0.16082473902729624  0.7526735664329733  0.6503402316131468  1.0000
  C   C343      1.0  0.18227553365408866  0.7090364321598747  0.6487294993109851  1.0000
  C   C344      1.0  0.1405667499252596  0.6745601486697076  0.645007456246842  1.0000
  C   C345      1.0  0.07628695311573189  0.6842937693159147  0.6433624100986443  1.0000
  C   C346      1.0  0.054718738916224696  0.7273917855753841  0.6454878500913463  1.0000
  C   C347      1.0  0.07067157879446184  0.8326639988678293  0.61060681636496  1.0000
  C   C348      1.0  0.0811768457700512  0.8612595149510306  0.590587714895236  1.0000
  C   C349      1.0  0.12481049806030442  0.8958039933189486  0.5940715794986584  1.0000
  C   C350      1.0  0.16166452736341966  0.8971919680108142  0.6169912101891923  1.0000
  C   C351      1.0  0.14951958213746364  0.8688010058829294  0.6375431855032405  1.0000
  C   C352      1.0  0.10144715354099366  0.8384796451900346  0.6352744347417997  1.0000
  H   H201      1.0  0.027897470013680925  0.8995306641679259  0.7772449450235608  1.0000
  H   H202      1.0  0.09961162767896216  0.7717301051529816  0.79460775111779  1.0000
  H   H203      1.0  0.9956358124800053  0.7497692539525846  0.8087854249152635  1.0000
  H   H204      1.0  0.91945748767137  0.8756082572813497  0.7892366249823862  1.0000
  H   H205      1.0  0.2609531833171365  0.8339019168861244  0.7511724774207755  1.0000
  H   H206      1.0  0.3527880223167254  0.8020528382567618  0.7711814865828419  1.0000
  H   H207      1.0  0.25120631909799285  0.7920346056695501  0.8451560832519196  1.0000
  H   H208      1.0  0.16254624813605312  0.8255138941801855  0.8258131663952585  1.0000
  H   H209      1.0  0.10190597636413098  0.9111584975097863  0.7342214374789786  1.0000
  H   H210      1.0  0.07619728866880601  0.8954745060077298  0.6871650437943974  1.0000
  H   H211      1.0  0.11080252480903927  0.7577328174937407  0.7027354560486272  1.0000
  H   H212      1.0  0.13800805144613662  0.7763686691179065  0.7473071235878938  1.0000
  H   H213      1.0  0.895533176500731  0.9071127639471013  0.6522638254526958  1.0000
  H   H214      1.0  0.004349266188148793  0.8884876101124786  0.6452880223997248  1.0000
  H   H215      1.0  0.9776038270445988  0.7656860261644527  0.6852192468780016  1.0000
  H   H216      1.0  0.8661782094070535  0.7852297849025786  0.6915027176256574  1.0000
  H   H217      1.0  0.19575560672260992  0.7783209535385804  0.6538927239086413  1.0000
  H   H218      1.0  0.23203771608462326  0.7029138758380199  0.6526594439128758  1.0000
  H   H219      1.0  0.0417485933111541  0.6573039838852517  0.640932182414681  1.0000
  H   H220      1.0  0.004340800095342434  0.7331490080082362  0.6448742377857609  1.0000
  H   H221      1.0  0.03316747918238039  0.8085805082514625  0.6086912963715371  1.0000
  H   H222      1.0  0.048848192151515146  0.8570100979912914  0.573499419569295  1.0000
  H   H223      1.0  0.19465663425056293  0.9232599865274508  0.6203943363313535  1.0000
  H   H224      1.0  0.17422795407973643  0.8727993772215787  0.6568013269755774  1.0000
  C   C353      1.0  0.08650227791132005  0.35281230276550213  0.5020014751994055  1.0000
  C   C354      1.0  0.10387153250976702  0.3855959496228987  0.5203997520593102  1.0000
  C   C355      1.0  0.15499829107489776  0.4123372990185491  0.5157633459213835  1.0000
  C   C356      1.0  0.19108041445154023  0.4063901370231451  0.4923673583094083  1.0000
  C   C357      1.0  0.17694556258383262  0.36984083459580597  0.4761550752881517  1.0000
  C   C358      1.0  0.1240846059247776  0.34402226688787524  0.4800547429670695  1.0000
  H   H225      1.0  0.0768403380979686  0.3911424418923838  0.5386769212273229  1.0000
  H   H226      1.0  0.16859623191119125  0.43789248598686653  0.5308392351003882  1.0000
  H   H227      1.0  0.21090956677172826  0.3595340808424842  0.4606855861104984  1.0000
  H   H228      1.0  0.11551114987161527  0.3172086426143031  0.4658528476312177  1.0000
  C   C359      1.0  0.3208155630726822  0.4314329432192265  0.5282778074168755  1.0000
  C   C360      1.0  0.3040955088578633  0.41251519250117713  0.5033276044256213  1.0000
  C   C361      1.0  0.33477012121087046  0.37421622190038967  0.4949065829160742  1.0000
  C   C362      1.0  0.3829206021689109  0.3567896601949559  0.5100107305565204  1.0000
  C   C363      1.0  0.3973381282620989  0.3751835608273894  0.5351708535470536  1.0000
  C   C364      1.0  0.36729062023123615  0.4137250205805081  0.5437392227484026  1.0000
  C   C365      1.0  0.2518759853405946  0.4348963963438858  0.48462655833598706  1.0000
  C   C366      1.0  0.24238119289214513  0.487465412998182  0.4905709275463458  1.0000
  C   C367      1.0  0.29697916783581746  0.513813036267557  0.49302537676868735  1.0000
  C   C368      1.0  0.29198177778683926  0.5572626279483578  0.5001444905903971  1.0000
  C   C369      1.0  0.23278339487594582  0.5765417845238711  0.5034608228867024  1.0000
  C   C370      1.0  0.17843141860141545  0.5521978376529718  0.49887285982553253  1.0000
  C   C371      1.0  0.1839884821416661  0.5083899495508947  0.49168108138868777  1.0000
  C   C372      1.0  0.21615384886931333  0.4495351802939667  0.43598567234915425  1.0000
  C   C373      1.0  0.2275462617238855  0.4625942354898237  0.4102684539759184  1.0000
  C   C374      1.0  0.2877612798296323  0.4635238977786722  0.39982291555024563  1.0000
  C   C375      1.0  0.3356567562311572  0.44445127905170984  0.41455364780735854  1.0000
  C   C376      1.0  0.32595910038481596  0.4333287736753912  0.44075529694816185  1.0000
  C   C377      1.0  0.2655307475614403  0.43660587047464317  0.4525592599845548  1.0000
  C   C378      1.0  0.2977608148329269  0.48663247246913666  0.37109213411043407  1.0000
  C   C379      1.0  0.5005620213645956  0.5123287626428574  0.36290929106160763  1.0000
  C   C380      1.0  0.4683213968610956  0.5302848050703999  0.38439177714169154  1.0000
  C   C381      1.0  0.4037812558038446  0.5255598825544666  0.38634362944268197  1.0000
  C   C382      1.0  0.37050755955525405  0.5017065205985923  0.36615094028124634  1.0000
  C   C383      1.0  0.40385102835581194  0.48867216915981715  0.3430173526683701  1.0000
  C   C384      1.0  0.4686589733810325  0.49298555313366865  0.3419596788258479  1.0000
  C   C385      1.0  0.26270506595215226  0.5344296650695581  0.3708660664189026  1.0000
  C   C386      1.0  0.24889697870223138  0.5521539053174198  0.3464547926565673  1.0000
  C   C387      1.0  0.21158194061414723  0.5897447103491011  0.344575604970712  1.0000
  C   C388      1.0  0.18845753282607333  0.6103555058621511  0.3679695741211557  1.0000
  C   C389      1.0  0.21031900985568922  0.5958010572047455  0.3923727740373649  1.0000
  C   C390      1.0  0.2481518180960587  0.5592099250418089  0.393521278648806  1.0000
  C   C391      1.0  0.20331166947173526  0.452517468234548  0.3430294634375592  1.0000
  C   C392      1.0  0.17807670036105183  0.4230848598954328  0.3246755927313483  1.0000
  C   C393      1.0  0.21286310662181443  0.3895337028282635  0.31297860815612644  1.0000
  C   C394      1.0  0.2744881387717551  0.38323320502487396  0.3221323312016193  1.0000
  C   C395      1.0  0.29988965460933387  0.4124190069815016  0.341773980364947  1.0000
  C   C396      1.0  0.26735848289094893  0.44965566668684  0.3503786818738634  1.0000
  H   H229      1.0  0.2968822458021745  0.4601522018488537  0.536361745850657  1.0000
  H   H230      1.0  0.32100194421158196  0.35853677671175554  0.47637306913355704  1.0000
  H   H231      1.0  0.405800380994571  0.3267708034996371  0.5026473828894954  1.0000
  H   H232      1.0  0.377188817711352  0.42976939756625726  0.563524182680469  1.0000
  H   H233      1.0  0.3442588602799065  0.5007959277207645  0.4900824598557153  1.0000
  H   H234      1.0  0.3335653539083952  0.5774935163995232  0.5028371182734593  1.0000
  H   H235      1.0  0.13154192366464137  0.5677808617879407  0.49895763520985686  1.0000
  H   H236      1.0  0.14224990575333038  0.4888070920782802  0.48596681679292364  1.0000
  H   H237      1.0  0.16831955119137348  0.45472435676101636  0.443116896940053  1.0000
  H   H238      1.0  0.1874060958998537  0.47649787226052465  0.3998531924732186  1.0000
  H   H239      1.0  0.38294191883487644  0.44241450949000866  0.40608014629799166  1.0000
  H   H240      1.0  0.3654849570531343  0.42196265002961536  0.452502743061672  1.0000
  H   H241      1.0  0.49407509258867477  0.5503386010917253  0.3996755678584439  1.0000
  H   H242      1.0  0.3833993781022064  0.5370852616300751  0.40524450322393774  1.0000
  H   H243      1.0  0.37866070921371564  0.4739393797645193  0.3260420911881947  1.0000
  H   H244      1.0  0.4933554202191424  0.47928958929516163  0.32426786350197906  1.0000
  H   H245      1.0  0.26586642622854395  0.5349256449065146  0.3283330450264824  1.0000
  H   H246      1.0  0.19528522802981638  0.6000103334019288  0.3254183865749517  1.0000
  H   H247      1.0  0.1922078177000407  0.6114011042992896  0.41111822628069283  1.0000
  H   H248      1.0  0.26369218360831614  0.5483359713172565  0.41292474935141305  1.0000
  H   H249      1.0  0.17248049808785731  0.47760965750832063  0.35161398033116037  1.0000
  H   H250      1.0  0.1295479124126513  0.4298276143302753  0.3183901035221609  1.0000
  H   H251      1.0  0.3045051881949354  0.3561599983037861  0.31462970968891874  1.0000
  H   H252      1.0  0.3487056319963156  0.4065294026505142  0.3487719864947648  1.0000
  C   C397      1.0  0.2201099032433087  0.4210828281827247  0.17340259878922054  1.0000
  C   C398      1.0  0.23173615263883185  0.4558799752976053  0.19132189472769287  1.0000
  C   C399      1.0  0.18177927232557362  0.4830299157364691  0.1985568682413124  1.0000
  C   C400      1.0  0.12111755637262799  0.4780701288013359  0.18762427504808132  1.0000
  C   C401      1.0  0.11338581222940806  0.445401954971925  0.16755652865544743  1.0000
  C   C402      1.0  0.16184028422077304  0.4159187632767521  0.16131887698455732  1.0000
  H   H253      1.0  0.2778189851025068  0.46149250203857467  0.20085670331033875  1.0000
  H   H254      1.0  0.19133598428086754  0.5103768089414796  0.21247537157813726  1.0000
  H   H255      1.0  0.06910233557132983  0.4416373822342415  0.15700037853784685  1.0000
  H   H256      1.0  0.1502481962295053  0.3888382767215704  0.14742378780149826  1.0000
  C   C403      1.0  0.9687451511483239  0.4599618168488762  0.19062310334547683  1.0000
  C   C404      1.0  0.9980217648457727  0.49855303490581115  0.18331385044749698  1.0000
  C   C405      1.0  0.9629810783720782  0.5261968346041591  0.1666922234276459  1.0000
  C   C406      1.0  0.907062250326705  0.5119604610081866  0.15517367085181133  1.0000
  C   C407      1.0  0.8835000755506578  0.47106685920588864  0.16038150344931434  1.0000
  C   C408      1.0  0.9117288330210983  0.44568427885223166  0.1794918935375431  1.0000
  C   C409      1.0  0.06622188277551544  0.5130682631018311  0.19532410025241245  1.0000
  C   C410      1.0  0.0924696394673555  0.5565338405111613  0.18211528799007387  1.0000
  C   C411      1.0  0.10867556543466096  0.5935566640208143  0.19727332855341187  1.0000
  C   C412      1.0  0.12250432106195644  0.6325167274127588  0.18498776059559557  1.0000
  C   C413      1.0  0.12727629521528178  0.6332062122893576  0.15710917361439639  1.0000
  C   C414      1.0  0.1154929912600788  0.5957455937608577  0.14146428012965312  1.0000
  C   C415      1.0  0.09967881511773011  0.5574670267268796  0.15392404131764054  1.0000
  C   C416      1.0  0.0015822448380606868  0.5435895303832732  0.23602476226650887  1.0000
  C   C417      1.0  0.9714179097388663  0.5374390467163478  0.26017161756821366  1.0000
  C   C418      1.0  0.9923187213865361  0.5042069916336099  0.2765716175119026  1.0000
  C   C419      1.0  0.04975214471429679  0.48286960655892336  0.2707120236858683  1.0000
  C   C420      1.0  0.07609749601413292  0.4869604066749425  0.24558621454137097  1.0000
  C   C421      1.0  0.050410802948889666  0.5164504526545306  0.22721417768137625  1.0000
  C   C422      1.0  0.9507200138893581  0.4895829998080729  0.30236351896180513  1.0000
  C   C423      1.0  0.7484061257953482  0.4667083249196497  0.2943138943740597  1.0000
  C   C424      1.0  0.7871923541999568  0.46403910992417724  0.27171519906703917  1.0000
  C   C425      1.0  0.8505653709804528  0.47540148860477577  0.2734793344455972  1.0000
  C   C426      1.0  0.8767223932499378  0.4911526538516589  0.29767261436252723  1.0000
  C   C427      1.0  0.8348483201693299  0.4973677890413389  0.3191833589040526  1.0000
  C   C428      1.0  0.7728075060834103  0.4842503220902455  0.31781686044720614  1.0000
  C   C429      1.0  0.9793266603665833  0.5243647296123483  0.32391261427242957  1.0000
  C   C430      1.0  0.9548047461454436  0.5669007368405032  0.32787687272035637  1.0000
  C   C431      1.0  0.9828787219047841  0.5980813256233849  0.3442284295872886  1.0000
  C   C432      1.0  0.038756575231767565  0.5881137973209916  0.3567913341595373  1.0000
  C   C433      1.0  0.06409197920462617  0.5462378924946657  0.35380199263134  1.0000
  C   C434      1.0  0.03510746188119973  0.5151482572809205  0.33734143884170503  1.0000
  C   C435      1.0  0.9510438115199495  0.4239647995934243  0.3357246511549487  1.0000
  C   C436      1.0  0.9509610169811308  0.3789484065067711  0.34035903883134383  1.0000
  C   C437      1.0  0.9526314719929907  0.3482731048593803  0.31931859582666516  1.0000
  C   C438      1.0  0.955321741387578  0.36257496905413067  0.2928928974558619  1.0000
  C   C439      1.0  0.9593865699597548  0.40708750510350367  0.2884704482402776  1.0000
  C   C440      1.0  0.9567634152448551  0.43840743983612174  0.3098156789362174  1.0000
  H   H257      1.0  0.991395549357406  0.43922007822716563  0.20491421468102228  1.0000
  H   H258      1.0  0.980586073456136  0.5572020489134292  0.1608641176015034  1.0000
  H   H259      1.0  0.8882538212586164  0.5335116349300596  0.13977967213543738  1.0000
  H   H260      1.0  0.8919533050130923  0.4135856166397584  0.18450595382801913  1.0000
  H   H261      1.0  0.1052859205102541  0.5940909576642696  0.219469340784892  1.0000
  H   H262      1.0  0.13078630482137862  0.662904333805975  0.19689264670856513  1.0000
  H   H263      1.0  0.11736266406972458  0.5980432696760899  0.12017031835661418  1.0000
  H   H264      1.0  0.08743701689222114  0.528478422461312  0.14187241305132867  1.0000
  H   H265      1.0  0.9818541380138472  0.5677323166167508  0.22253942077435057  1.0000
  H   H266      1.0  0.9268154811626422  0.5534003309397062  0.2641439498622665  1.0000
  H   H267      1.0  0.06915958430953206  0.4597858675620084  0.28450013440775623  1.0000
  H   H268      1.0  0.1143081541942727  0.46458261912164855  0.24057639302011113  1.0000
  H   H269      1.0  0.7682678958273813  0.449077324580196  0.25314131605389134  1.0000
  H   H270      1.0  0.8803447829434169  0.4695682479648981  0.2560014760440707  1.0000
  H   H271      1.0  0.8538150365589603  0.5066999940766018  0.33882097114431725  1.0000
  H   H272      1.0  0.7472082985223115  0.4850820638489621  0.33680250961278624  1.0000
  H   H273      1.0  0.9113062422707877  0.5770826196894263  0.3179238389083773  1.0000
  H   H274      1.0  0.9642328426431657  0.6311273501675939  0.346472958810351  1.0000
  H   H275      1.0  0.10613142591201731  0.5386065754980754  0.36452809720989543  1.0000
  H   H276      1.0  0.05462665466567973  0.4829572374646243  0.33501617115738136  1.0000
  H   H277      1.0  0.9452873440679923  0.44657821534025327  0.3528028541732321  1.0000
  H   H278      1.0  0.9446247409286028  0.3670606179833377  0.36033575260890566  1.0000
  H   H279      1.0  0.9569346454340332  0.33947090447662503  0.27542916828505615  1.0000
  H   H280      1.0  0.9629621405246187  0.41544409282643713  0.26801737754127447  1.0000
  C   C441      1.0  0.6228710053875599  0.37439765197950015  0.29415847283613183  1.0000
  C   C442      1.0  0.561094349956489  0.38262512481576477  0.3017216481947783  1.0000
  C   C443      1.0  0.5132499590245007  0.355948991669671  0.2923983743806368  1.0000
  C   C444      1.0  0.5242468268012728  0.32266725674452  0.27291820213983164  1.0000
  C   C445      1.0  0.5872215684062227  0.3126841344654255  0.26736339600505843  1.0000
  C   C446      1.0  0.6356671381195671  0.3385438262089068  0.2776777344311816  1.0000
  H   H281      1.0  0.5502150430641085  0.4082488199247632  0.3169125896810802  1.0000
  H   H282      1.0  0.46539925271884003  0.3633361977155497  0.2990330574347791  1.0000
  H   H283      1.0  0.599600466525604  0.2838162102617791  0.25451386989533237  1.0000
  H   H284      1.0  0.6840807856103356  0.33045694396556996  0.2717575867592013  1.0000
  C   C447      1.0  0.39199056786508985  0.36158927306715877  0.25286882374713465  1.0000
  C   C448      1.0  0.4002710318829746  0.31677124254678707  0.2551678514315484  1.0000
  C   C449      1.0  0.34548207989387913  0.29044695737924  0.2537630022056029  1.0000
  C   C450      1.0  0.2860437039368756  0.30882331960777937  0.25530106989262946  1.0000
  C   C451      1.0  0.27904110842232505  0.35398415737546884  0.2559611068134401  1.0000
  C   C452      1.0  0.33218103757141726  0.380723008374095  0.25342188220677414  1.0000
  C   C453      1.0  0.46785651435034686  0.2941927616266761  0.2594268052630787  1.0000
  C   C454      1.0  0.4666458858422388  0.25530832282364335  0.2811979313421716  1.0000
  C   C455      1.0  0.5070325517394895  0.21834029249172843  0.2789796421190191  1.0000
  C   C456      1.0  0.5040648896570521  0.18413196228800877  0.2969600974418968  1.0000
  C   C457      1.0  0.4583345632985585  0.1847311471097942  0.31658156198990917  1.0000
  C   C458      1.0  0.4173405119017822  0.22049724451192088  0.3185394696754942  1.0000
  C   C459      1.0  0.42239193485901966  0.2555929308203494  0.30223635588531866  1.0000
  C   C460      1.0  0.5071066570488612  0.30859771423583526  0.2100915685093992  1.0000
  C   C461      1.0  0.5173655564080296  0.2951877641468628  0.18350742090837077  1.0000
  C   C462      1.0  0.49634723497933336  0.2545159756227766  0.1732942074049773  1.0000
  C   C463      1.0  0.46661143924489945  0.22769420130647702  0.19122561411263883  1.0000
  C   C464      1.0  0.46002495684580774  0.23912643525971466  0.21805238078975725  1.0000
  C   C465      1.0  0.4803518329055361  0.2793672137975001  0.228239556139394  1.0000
  C   C466      1.0  0.49336502162130397  0.24737205882671479  0.14029559090289667  1.0000
  C   C467      1.0  0.32587898285450917  0.33210550700845715  0.13645788999299688  1.0000
  C   C468      1.0  0.3850565037487131  0.3490868668195792  0.1310292377039444  1.0000
  C   C469      1.0  0.4372102987417797  0.32263289068821016  0.13079549985859312  1.0000
  C   C470      1.0  0.43144803003993976  0.2774011909560792  0.13579543091834842  1.0000
  C   C471      1.0  0.37196484901789684  0.2601668498794448  0.1413288413608874  1.0000
  C   C472      1.0  0.3197964542319052  0.28782631380803525  0.14193195766650885  1.0000
  C   C473      1.0  0.4850048098404804  0.19848847836593603  0.12833156386705327  1.0000
  C   C474      1.0  0.5159821060026686  0.16354499817725424  0.14027338782604984  1.0000
  C   C475      1.0  0.5108671064568755  0.1213499108902613  0.12908485371062062  1.0000
  C   C476      1.0  0.4747448513975686  0.11266191230804014  0.106546712249546  1.0000
  C   C477      1.0  0.44481362691064485  0.14724195885966765  0.09448721198326117  1.0000
  C   C478      1.0  0.45013307796096724  0.18960063189360205  0.10503306794705095  1.0000
  C   C479      1.0  0.5528756706583232  0.27718080212511276  0.09787822735623318  1.0000
  C   C480      1.0  0.6062369147198127  0.2961222258922446  0.08645104857725583  1.0000
  C   C481      1.0  0.6637160241878354  0.29672249465621037  0.09981272088805244  1.0000
  C   C482      1.0  0.6676476182514586  0.2759296024639942  0.12387843403618969  1.0000
  C   C483      1.0  0.6154764325361958  0.25726122284700553  0.13539214230434854  1.0000
  C   C484      1.0  0.5558725585468278  0.26096619596998927  0.12409541865082926  1.0000
  H   H285      1.0  0.43198334435202196  0.38337600909533237  0.25196858990407184  1.0000
  H   H286      1.0  0.3509547362171759  0.2557513187322186  0.2543988175880351  1.0000
  H   H287      1.0  0.24482884815194347  0.2866618373472227  0.25697033757920557  1.0000
  H   H288      1.0  0.327843809090071  0.41723651716730725  0.25363180220605336  1.0000
  H   H289      1.0  0.543492311678569  0.2170901044392525  0.264370017553798  1.0000
  H   H290      1.0  0.534972726713456  0.15565863839723101  0.294885118987483  1.0000
  H   H291      1.0  0.3822858932077315  0.2223745820170921  0.3345721096204446  1.0000
  H   H292      1.0  0.38966267463041065  0.2825334954352277  0.3056273712582907  1.0000
  H   H293      1.0  0.521225395511858  0.34200493666440973  0.21696241156273055  1.0000
  H   H294      1.0  0.5374806497268395  0.31819209660956205  0.16975079818637473  1.0000
  H   H295      1.0  0.4461255015506368  0.19614014305144645  0.1847320215195506  1.0000
  H   H296      1.0  0.4339880503096838  0.21824141552398738  0.2310532915143481  1.0000
  H   H297      1.0  0.39146485481433635  0.38397581194498076  0.12798701248362093  1.0000
  H   H298      1.0  0.4820750954884219  0.3366909655277927  0.1251486518779821  1.0000
  H   H299      1.0  0.3668727579317535  0.2262666663392674  0.14719105918691272  1.0000
  H   H300      1.0  0.2735759129247694  0.27405640685899535  0.14718359087924607  1.0000
  H   H301      1.0  0.548397537272016  0.16871483030383175  0.15689440930744147  1.0000
  H   H302      1.0  0.5344280467056424  0.09507760830946568  0.1398329595198698  1.0000
  H   H303      1.0  0.418636211632796  0.14136122034609871  0.07613469168960108  1.0000
  H   H304      1.0  0.4277114855083068  0.21685777574722118  0.0945754187521891  1.0000
  H   H305      1.0  0.508574679744214  0.28008732415770243  0.08733917165112959  1.0000
  H   H306      1.0  0.6034090891230784  0.3103935658443482  0.06657727633780208  1.0000
  H   H307      1.0  0.7120790176397965  0.27542781116676174  0.13474199584504243  1.0000
  H   H308      1.0  0.6192264249727374  0.24561070992475306  0.15517145054412665  1.0000
  C   C485      1.0  0.6199015762506637  0.4435661934499606  0.38627096482754686  1.0000
  C   C486      1.0  0.5846014814824487  0.41358854394520755  0.37232945102926257  1.0000
  C   C487      1.0  0.5978824963559907  0.3685320266373053  0.3721033833377311  1.0000
  C   C488      1.0  0.6457017611606816  0.35332344154213197  0.3885841217426813  1.0000
  C   C489      1.0  0.6791246281502533  0.3839873206522004  0.404116183227812  1.0000
  C   C490      1.0  0.6676783142958578  0.42846131481923155  0.4024933401564611  1.0000
  H   H309      1.0  0.5462446369115812  0.42499515681648087  0.35976452799548236  1.0000
  H   H310      1.0  0.5699843672709665  0.3467132042074707  0.35968580799575267  1.0000
  H   H311      1.0  0.7159429149549927  0.37278425738672943  0.4174703247204208  1.0000
  H   H312      1.0  0.6961871520130168  0.4517384040914278  0.41410353088582713  1.0000
  C   C491      1.0  0.7101991006863679  0.2940507486550914  0.3415398388272894  1.0000
  C   C492      1.0  0.7192437544158372  0.3025323698229631  0.3687002571955699  1.0000
  C   C493      1.0  0.780404544654096  0.31155736973649684  0.3781426202400717  1.0000
  C   C494      1.0  0.8317909114192337  0.3084612100220156  0.36144792491277916  1.0000
  C   C495      1.0  0.8234392779796401  0.295113683788686  0.3349556173114354  1.0000
  C   C496      1.0  0.7625785427538725  0.2883809441128344  0.32518424503729404  1.0000
  C   C497      1.0  0.6616275244669557  0.30167024738827164  0.38943994943205046  1.0000
  C   C498      1.0  0.6051112911475247  0.2679638586149095  0.381812183304395  1.0000
  C   C499      1.0  0.620012138128843  0.22708382029606186  0.37027465719016406  1.0000
  C   C500      1.0  0.5757927944742947  0.1945983043259542  0.36567458335980496  1.0000
  C   C501      1.0  0.513297695443219  0.2014437035006826  0.37337097717953255  1.0000
  C   C502      1.0  0.49653122180642295  0.24166811592650558  0.3863638140579973  1.0000
  C   C503      1.0  0.5420808602067768  0.2745458185530747  0.39030990635214025  1.0000
  C   C504      1.0  0.6593256390968348  0.30336977334954957  0.44219849694320645  1.0000
  C   C505      1.0  0.6732046639530694  0.28455994324643324  0.46661178916707335  1.0000
  C   C506      1.0  0.7085936990374597  0.24557193937568078  0.46796819531626216  1.0000
  C   C507      1.0  0.7285679994732224  0.22510571035509913  0.44413016462888155  1.0000
  C   C508      1.0  0.7160380540765723  0.24421414753880596  0.4206978447093388  1.0000
  C   C509      1.0  0.6802472799682374  0.2831692593123848  0.4183624847173575  1.0000
  C   C510      1.0  0.7385571109747707  0.22740275923892328  0.4954596413757137  1.0000
  C   C511      1.0  0.9165788261675796  0.3011813927794471  0.48968482293400367  1.0000
  C   C512      1.0  0.8645660003363013  0.3214127378217978  0.5011718875099463  1.0000
  C   C513      1.0  0.8094488942391863  0.297268737656713  0.503406324425351  1.0000
  C   C514      1.0  0.805919047146849  0.2523878650369336  0.49525981368409216  1.0000
  C   C515      1.0  0.8591289796687157  0.2340389106610217  0.4837626568004918  1.0000
  C   C516      1.0  0.9138006681261854  0.258448912210793  0.4803575121967992  1.0000
  C   C517      1.0  0.7423439141573204  0.17558613239049395  0.49728029367715465  1.0000
  C   C518      1.0  0.6944062894339721  0.14917515616964505  0.4869558629433738  1.0000
  C   C519      1.0  0.6926912325521858  0.10344319504191082  0.4903569706240035  1.0000
  C   C520      1.0  0.7398822262532617  0.08353547020633575  0.5046900659594047  1.0000
  C   C521      1.0  0.7871720813298823  0.10927630404077798  0.5158057336135458  1.0000
  C   C522      1.0  0.7884067787964063  0.1547591556735981  0.5124308659328259  1.0000
  C   C523      1.0  0.7282890977830271  0.24420979090253028  0.5454811550501137  1.0000
  C   C524      1.0  0.6955229274776769  0.2546341899870378  0.568610705739927  1.0000
  C   C525      1.0  0.6307086178843866  0.25848276362789085  0.5685259303556026  1.0000
  C   C526      1.0  0.5987629002047484  0.2460968816282568  0.5457496104338074  1.0000
  C   C527      1.0  0.6311622943733413  0.23734652259884753  0.5215886259013819  1.0000
  C   C528      1.0  0.6975000797093333  0.23720813417209594  0.5212535612871477  1.0000
  H   H313      1.0  0.6653811377801444  0.2877529276255777  0.33191783270648134  1.0000
  H   H314      1.0  0.7884719685852187  0.32014567694779184  0.3994838140129484  1.0000
  H   H315      1.0  0.8787090304912087  0.31449143949718333  0.3692190018091734  1.0000
  H   H316      1.0  0.7552636273036734  0.27751665796133845  0.3044223497239667  1.0000
  H   H317      1.0  0.6674832404189995  0.21827582518720226  0.3649883064390845  1.0000
  H   H318      1.0  0.5923306213988127  0.16387831468833047  0.35620799877692483  1.0000
  H   H319      1.0  0.4493064691008738  0.2491088318431278  0.39318823249610346  1.0000
  H   H320      1.0  0.5289023068447603  0.3063307949092386  0.40009944478006537  1.0000
  H   H321      1.0  0.6307755006694049  0.3331641831039776  0.4415546077146481  1.0000
  H   H322      1.0  0.661036096577189  0.30202838568276713  0.48548440448688773  1.0000
  H   H323      1.0  0.7553121222929826  0.19382033383157035  0.44385767232212486  1.0000
  H   H324      1.0  0.7356361287095596  0.2273033434691978  0.403070620154479  1.0000
  H   H325      1.0  0.8658269801253424  0.3552705793795235  0.5078408844101245  1.0000
  H   H326      1.0  0.7684323149058151  0.3144931829921108  0.5109230751687723  1.0000
  H   H327      1.0  0.8584244025586407  0.20134151348037385  0.4744272722171612  1.0000
  H   H328      1.0  0.9525947272092186  0.24296932691466608  0.4692963430040095  1.0000
  H   H329      1.0  0.6570773417583214  0.1649201384294534  0.4758664352891428  1.0000
  H   H330      1.0  0.652052532984465  0.08489256311273692  0.4828523306497714  1.0000
  H   H331      1.0  0.8215118173658232  0.09417833987714166  0.5289277520300284  1.0000
  H   H332      1.0  0.8230055201995289  0.17458374303315988  0.5238997643549849  1.0000
  H   H333      1.0  0.7792355872199663  0.2401587552006207  0.5475520965814645  1.0000
  H   H334      1.0  0.7201370217323735  0.26097167630842916  0.5872229395221739  1.0000
  H   H335      1.0  0.5466631019285302  0.24330715774234224  0.546181561201555  1.0000
  H   H336      1.0  0.606270589073359  0.22572885118758823  0.503690927501297  1.0000
  C   C529      1.0  0.6852912108316076  0.6824864853680493  0.449012823073655  1.0000
  C   C530      1.0  0.6852690608361695  0.7168283064576089  0.4311332908273538  1.0000
  C   C531      1.0  0.6322049766383214  0.7427462284185264  0.42682185699600367  1.0000
  C   C532      1.0  0.5767401531339287  0.7360881751874895  0.4411186200238374  1.0000
  C   C533      1.0  0.5782168178978382  0.7014431032916233  0.45924440457698534  1.0000
  C   C534      1.0  0.6300810945677849  0.6745447260224556  0.4630936107176149  1.0000
  H   H337      1.0  0.7261213773232866  0.7216494273536441  0.420029733942402  1.0000
  H   H338      1.0  0.6344871281277035  0.7683980234175212  0.41216177089249434  1.0000
  H   H339      1.0  0.5351510603196228  0.6927041664265283  0.4692761583886942  1.0000
  H   H340      1.0  0.6276348306202593  0.6491033499797645  0.4780625214354484  1.0000
  C   C535      1.0  0.4560977654126625  0.6993049272571723  0.4177266693349252  1.0000
  C   C536      1.0  0.45185694855123815  0.7374383717405691  0.4344738446620375  1.0000
  C   C537      1.0  0.3896345373789279  0.7542715799471857  0.4376791615741087  1.0000
  C   C538      1.0  0.3400550088694153  0.7368279088989179  0.42323505085447316  1.0000
  C   C539      1.0  0.3489712513986137  0.7046476037499498  0.404146460150785  1.0000
  C   C540      1.0  0.40746621079288753  0.6849164008630378  0.40198670631204686  1.0000
  C   C541      1.0  0.5152870763294224  0.7661403236766429  0.44067052156383757  1.0000
  C   C542      1.0  0.5074750828748643  0.8052004760150632  0.4191759247145644  1.0000
  C   C543      1.0  0.47821065288233666  0.8454091902794352  0.4262728354594273  1.0000
  C   C544      1.0  0.47494601777986034  0.8790361561631685  0.4082843062904234  1.0000
  C   C545      1.0  0.4909322518440387  0.8714478457227514  0.38128940176772846  1.0000
  C   C546      1.0  0.5153164770963908  0.8301889367063993  0.3739361464083612  1.0000
  C   C547      1.0  0.5246388840252868  0.7983415349693155  0.3925241586522297  1.0000
  C   C548      1.0  0.4740197422196469  0.7898315895308289  0.4881205152470672  1.0000
  C   C549      1.0  0.46582984019645085  0.8246935427502158  0.5060081213394945  1.0000
  C   C550      1.0  0.5060524883239853  0.8613941038263055  0.5062462998002151  1.0000
  C   C551      1.0  0.5603454738091687  0.8579531053014702  0.4903912844700395  1.0000
  C   C552      1.0  0.5706646028287283  0.8223874221010423  0.47297397991445894  1.0000
  C   C553      1.0  0.522589550374716  0.7910787386575344  0.4693367122346401  1.0000
  C   C554      1.0  0.48538379551375516  0.9067386897843358  0.5213706320559766  1.0000
  C   C555      1.0  0.3732660756603034  0.9665055958736462  0.45711896458428325  1.0000
  C   C556      1.0  0.3443824957520173  0.940933096708954  0.4757251429819356  1.0000
  C   C557      1.0  0.37927569033030956  0.9216585279622026  0.49531633060697505  1.0000
  C   C558      1.0  0.44501698243106286  0.9267810176412661  0.4976557275220194  1.0000
  C   C559      1.0  0.4738860071557771  0.9517612621361625  0.47755185066797107  1.0000
  C   C560      1.0  0.4391321064225694  0.9706420043311246  0.45735310612194086  1.0000
  C   C561      1.0  0.5423549574664916  0.9394233953180363  0.5312449458682259  1.0000
  C   C562      1.0  0.6020272001751497  0.9248888034186626  0.5389373027648904  1.0000
  C   C563      1.0  0.6517696077593693  0.9537411804384889  0.5421083058309256  1.0000
  C   C564      1.0  0.6422043010419968  0.9991041278103275  0.5397971673773226  1.0000
  C   C565      1.0  0.581226619406867  0.014458298548891246  0.5364142258504767  1.0000
  C   C566      1.0  0.5323030765437822  0.9854226884605071  0.5323934504796671  1.0000
  C   C567      1.0  0.4045022506833408  0.9384519103147176  0.5574566873166868  1.0000
  C   C568      1.0  0.36655887095314466  0.9331606910662651  0.5798091303168607  1.0000
  C   C569      1.0  0.3693287414446508  0.8949041808386682  0.5938394564225323  1.0000
  C   C570      1.0  0.4121093184180126  0.8623014184982754  0.5863025210637958  1.0000
  C   C571      1.0  0.4515698313209671  0.8678751078827412  0.5643093642162345  1.0000
  C   C572      1.0  0.4463241365265665  0.9052702490688879  0.5486319735008336  1.0000
  H   H341      1.0  0.5034137745130247  0.6851217559450065  0.4131447616583499  1.0000
  H   H342      1.0  0.3805263306329769  0.7852040440498468  0.44870399845933073  1.0000
  H   H343      1.0  0.2926176806345873  0.74902122943443  0.4254553585391572  1.0000
  H   H344      1.0  0.419475978918992  0.6612736113270128  0.38633555559655586  1.0000
  H   H345      1.0  0.4581960508518538  0.853402492715053  0.44627377077536745  1.0000
  H   H346      1.0  0.45613882266243777  0.9107232607911634  0.4144951124229441  1.0000
  H   H347      1.0  0.5263758616165747  0.8242799432712479  0.3524476049436827  1.0000
  H   H348      1.0  0.5450235743502347  0.7674287263838266  0.3847530817558355  1.0000
  H   H349      1.0  0.4388519569117903  0.7637849999590168  0.4865521706370676  1.0000
  H   H350      1.0  0.4226124257245217  0.8257699613149202  0.5173518751466984  1.0000
  H   H351      1.0  0.5920866607602915  0.8862570214397999  0.48909745062832816  1.0000
  H   H352      1.0  0.6096861132568937  0.8235703624586928  0.4586025338099585  1.0000
  H   H353      1.0  0.2940341955921759  0.935980265698395  0.4750610691380619  1.0000
  H   H354      1.0  0.3538692391107485  0.8991826133033349  0.5085009213309352  1.0000
  H   H355      1.0  0.5257144387795409  0.9563522114857879  0.4773055983611243  1.0000
  H   H356      1.0  0.46464980048226795  0.9911706927397498  0.44318350617059354  1.0000
  H   H357      1.0  0.6110800409644942  0.8902628006588704  0.5409598012194844  1.0000
  H   H358      1.0  0.6986694264446185  0.9399407802009051  0.5465004781235369  1.0000
  H   H359      1.0  0.5731995961220572  0.049574977108532536  0.5334188289376848  1.0000
  H   H360      1.0  0.48677573371211985  0.0006211355071676916  0.5275572166501189  1.0000
  H   H361      1.0  0.3984170758974761  0.9678456837389257  0.5460160473559695  1.0000
  H   H362      1.0  0.33592043330200966  0.9607741607946368  0.5860582872184805  1.0000
  H   H363      1.0  0.417691490234565  0.8323797846115222  0.5973838748719007  1.0000
  H   H364      1.0  0.4857934615733368  0.843369214947255  0.5586233580819118  1.0000
  C   C573      1.0  0.4790784404779066  0.6771081786762332  0.23310808535344663  1.0000
  C   C574      1.0  0.44147147094453626  0.7139498264697733  0.22908529152110546  1.0000
  C   C575      1.0  0.46044359663577905  0.7553509359078691  0.23663837457209425  1.0000
  C   C576      1.0  0.5193935245355137  0.7624960447411897  0.24944349452812664  1.0000
  C   C577      1.0  0.5578896127513397  0.7253817887587223  0.2526891806708284  1.0000
  C   C578      1.0  0.5376928227373861  0.6841560016015299  0.2456124545412809  1.0000
  H   H365      1.0  0.3950571693117286  0.7104366655761752  0.22031911308966654  1.0000
  H   H366      1.0  0.4311130816408065  0.7831815500201896  0.23154983305110474  1.0000
  H   H367      1.0  0.6027249559480332  0.7267988006836759  0.2626260667905553  1.0000
  H   H368      1.0  0.5692701340230351  0.6557191096252792  0.2499501283725409  1.0000
  C   C579      1.0  0.6046395723921606  0.7948828092095941  0.30155411588766123  1.0000
  C   C580      1.0  0.5986869981893042  0.8191035876333205  0.27825905135226253  1.0000
  C   C581      1.0  0.6324133358871872  0.8591459688553715  0.27674722366514587  1.0000
  C   C582      1.0  0.6578464959562998  0.8777728917638103  0.2994993220485627  1.0000
  C   C583      1.0  0.6585501622675439  0.8553794592918662  0.32321422658251986  1.0000
  C   C584      1.0  0.6333043460659963  0.8136788237084118  0.32416694042540245  1.0000
  C   C585      1.0  0.5400958375650398  0.8114808179546308  0.25823994988253857  1.0000
  C   C586      1.0  0.48628325417216406  0.8389167112795803  0.27450471290361494  1.0000
  C   C587      1.0  0.48576853699652855  0.8849902708023667  0.2759580052063172  1.0000
  C   C588      1.0  0.4585854922505504  0.9081753753681163  0.296877340519104  1.0000
  C   C589      1.0  0.42902178542248187  0.8855488656001329  0.31738289121792695  1.0000
  C   C590      1.0  0.41917847633879296  0.8406029566932502  0.3137839743072073  1.0000
  C   C591      1.0  0.4483267571728599  0.8176002994822387  0.2929352851480241  1.0000
  C   C592      1.0  0.6137790961744428  0.8163560949737216  0.21685947002462247  1.0000
  C   C593      1.0  0.6350843100663024  0.8370438900881997  0.19409082025664703  1.0000
  C   C594      1.0  0.5991208552843046  0.8692069532253898  0.18182563876029917  1.0000
  C   C595      1.0  0.5390470919174511  0.8770838774237967  0.1923902664163322  1.0000
  C   C596      1.0  0.5196758800503533  0.8574374050788276  0.21550710079849672  1.0000
  C   C597      1.0  0.5579906927289089  0.8289697286182081  0.22925484228975407  1.0000
  C   C598      1.0  0.6292898320163258  0.8978321592787918  0.15854450160946804  1.0000
  C   C599      1.0  0.7748490735761999  0.9586673410540152  0.21078793773777735  1.0000
  C   C600      1.0  0.7950835123531529  0.9358214740035488  0.18808670458495505  1.0000
  C   C601      1.0  0.7507369729295243  0.9152855823079419  0.1718057938716264  1.0000
  C   C602      1.0  0.6855554803900179  0.9226237126320358  0.17533426647489564  1.0000
  C   C603      1.0  0.6674270243323072  0.9492264690846436  0.19726787870727674  1.0000
  C   C604      1.0  0.7107213071431754  0.9650611189639285  0.21557976541363186  1.0000
  C   C605      1.0  0.584200701058118  0.9325154254516882  0.1446841299647513  1.0000
  C   C606      1.0  0.5235285289079128  0.9202702049058454  0.1362477681475645  1.0000
  C   C607      1.0  0.4812425433530066  0.9508120652547737  0.12676362294936003  1.0000
  C   C608      1.0  0.5013691193964351  0.993271742422534  0.12178226173569479  1.0000
  C   C609      1.0  0.5641935140894162  0.0043165686376349655  0.1269604229486843  1.0000
  C   C610      1.0  0.6056051302716566  0.97426285161793  0.13777614721923975  1.0000
  C   C611      1.0  0.696347549197047  0.8811556186071456  0.11631990113906573  1.0000
  C   C612      1.0  0.7280832831726495  0.8524340937639684  0.09945222365852102  1.0000
  C   C613      1.0  0.7161829388852614  0.8080884576093468  0.10043077380900721  1.0000
  C   C614      1.0  0.6663081341033273  0.7933982992199251  0.11520147160444442  1.0000
  C   C615      1.0  0.6316707429916706  0.822766139153598  0.13074503832030482  1.0000
  C   C616      1.0  0.6517543034580401  0.8661721534699948  0.13438755400010557  1.0000
  H   H369      1.0  0.5777013992591162  0.7642826883140906  0.30385718049513805  1.0000
  H   H370      1.0  0.6288159212018135  0.8806725080947578  0.2600061037226281  1.0000
  H   H371      1.0  0.6731492572959389  0.9121712123710873  0.29874845435883324  1.0000
  H   H372      1.0  0.6282986773519494  0.7956755335779562  0.3426742142080098  1.0000
  H   H373      1.0  0.5164815994602523  0.9050359672452624  0.2631993098655101  1.0000
  H   H374      1.0  0.4662979942943566  0.9431348694597075  0.29815300820703156  1.0000
  H   H375      1.0  0.39686302315768984  0.8210875948416905  0.3284097465646805  1.0000
  H   H376      1.0  0.44885769941042813  0.7810184788239442  0.29379313129892476  1.0000
  H   H377      1.0  0.6463513567983838  0.793465853084338  0.2265117530684035  1.0000
  H   H378      1.0  0.6824870249056383  0.8297919248360619  0.18709442889605443  1.0000
  H   H379      1.0  0.5051276635898192  0.9012083665395119  0.1846932670581452  1.0000
  H   H380      1.0  0.4736274674467372  0.8673780423603141  0.22422281769164737  1.0000
  H   H381      1.0  0.8455380508139806  0.9323847891572719  0.18390102090701932  1.0000
  H   H382      1.0  0.7684309885099694  0.8919889777810859  0.1567367674618289  1.0000
  H   H383      1.0  0.6175672186974741  0.955892569393639  0.2000573925438525  1.0000
  H   H384      1.0  0.6943324189864087  0.983897343919526  0.2330011068922755  1.0000
  H   H385      1.0  0.5077398664201824  0.8865723820229314  0.13874884383128452  1.0000
  H   H386      1.0  0.43162034590570386  0.942766671945775  0.12349290788366728  1.0000
  H   H387      1.0  0.5837235575947133  0.03630088504259876  0.12281430111676657  1.0000
  H   H388      1.0  0.6552177116984458  0.9844986188689955  0.14066759336315784  1.0000
  H   H389      1.0  0.7083769356613268  0.9157296646541301  0.11771788759580407  1.0000
  H   H390      1.0  0.7632181737823314  0.8635890764940848  0.08561338704167043  1.0000
  H   H391      1.0  0.6560142655208948  0.7586592190822952  0.11534498421933628  1.0000
  H   H392      1.0  0.5938602310314515  0.8094380611644035  0.14237823951113032  1.0000
  C   C617      1.0  0.27102422040720797  0.9201333237083734  0.4166932170307814  1.0000
  C   C618      1.0  0.29045906065783295  0.8772009065187235  0.41636622626267333  1.0000
  C   C619      1.0  0.25118551130522326  0.8448797903639002  0.42567335238456255  1.0000
  C   C620      1.0  0.19014600689224684  0.8545933400440817  0.4350491061985238  1.0000
  C   C621      1.0  0.16928085121598527  0.8982744886493119  0.43127054621149785  1.0000
  C   C622      1.0  0.20941020175001765  0.9306570690673871  0.4231099062395183  1.0000
  H   H393      1.0  0.3380871514841671  0.8678360771025775  0.41026038012979216  1.0000
  H   H394      1.0  0.2710124052324062  0.8129819708376421  0.4272598631483459  1.0000
  H   H395      1.0  0.12336770619898735  0.9083957697913723  0.4387711492626669  1.0000
  H   H396      1.0  0.19315081268771403  0.9645192981404072  0.4228676908557345  1.0000
  C   C623      1.0  0.17644096795609823  0.8780277771578852  0.4920363306182372  1.0000
  C   C624      1.0  0.13403904526335803  0.8460267900130704  0.4811346198864386  1.0000
  C   C625      1.0  0.0789092324574593  0.8380360802118807  0.49578663214382174  1.0000
  C   C626      1.0  0.06382658189144674  0.8648379024884029  0.5182077028360675  1.0000
  C   C627      1.0  0.10599813102832945  0.8990435110905437  0.5263239366543535  1.0000
  C   C628      1.0  0.16251784786671317  0.9041512416209693  0.5135167982367896  1.0000
  C   C629      1.0  0.15030699985590715  0.8215080494073121  0.45326975844365375  1.0000
  C   C630      1.0  0.1815484470517414  0.7777054389238676  0.46581045993905557  1.0000
  C   C631      1.0  0.14538010087530182  0.739950270626981  0.4693145091577933  1.0000
  C   C632      1.0  0.17190049892228648  0.7010832630635206  0.47612681682671026  1.0000
  C   C633      1.0  0.2337215212983222  0.7001469417420246  0.48504639833454555  1.0000
  C   C634      1.0  0.2696360250941679  0.7389350058037537  0.48483445987373475  1.0000
  C   C635      1.0  0.24347977026711712  0.7769881569767331  0.475357782983197  1.0000
  C   C636      1.0  0.040789354994330784  0.8342118813634586  0.4321203185162724  1.0000
  C   C637      1.0  0.9885497778316259  0.8219195646824167  0.41666697703087147  1.0000
  C   C638      1.0  0.9900395869614824  0.7842374025452695  0.3997179555506061  1.0000
  C   C639      1.0  0.047440510284806114  0.7608678983163654  0.3978932663261021  1.0000
  C   C640      1.0  0.10039430221206443  0.7746666697344415  0.4126038139678997  1.0000
  C   C641      1.0  0.09600975313635837  0.8095396414172611  0.4314845031338402  1.0000
  C   C642      1.0  0.9245008968102258  0.7626120607686611  0.3888081709726812  1.0000
  C   C643      1.0  0.8452173378263884  0.6891181948157722  0.45468873690031997  1.0000
  C   C644      1.0  0.8422627075304885  0.7342860532004823  0.45578677997347283  1.0000
  C   C645      1.0  0.8697014125744799  0.7582931349667639  0.4358585092726677  1.0000
  C   C646      1.0  0.9041320109328799  0.7369622962912301  0.41515918626681786  1.0000
  C   C647      1.0  0.9159216484280333  0.692067563951817  0.4173451801054659  1.0000
  C   C648      1.0  0.8860951716129672  0.6681850843994663  0.43696664465347823  1.0000
  C   C649      1.0  0.9245429096861401  0.7342171972493052  0.3611592849137703  1.0000
  C   C650      1.0  0.9669965135461835  0.7464742974525961  0.3410695372904427  1.0000
  C   C651      1.0  0.9602979506985594  0.728861174163537  0.3152473589175672  1.0000
  C   C652      1.0  0.912439204955952  0.6980396017321785  0.30896792509297444  1.0000
  C   C653      1.0  0.8750888656991189  0.68297634457506  0.32938870040747303  1.0000
  C   C654      1.0  0.8784184906945941  0.7029050813443969  0.3543994572446731  1.0000
  C   C655      1.0  0.807025566218416  0.7885755378114135  0.3819131063809715  1.0000
  C   C656      1.0  0.7635664246821913  0.8197419005671309  0.3745315925601628  1.0000
  C   C657      1.0  0.7827668010819078  0.8592009620232234  0.3642899187491747  1.0000
  C   C658      1.0  0.84620826962062  0.8674384456946908  0.36145398029737374  1.0000
  C   C659      1.0  0.8916726600749565  0.8369147380031087  0.3684055618119664  1.0000
  C   C660      1.0  0.8718921115363106  0.7980332476140299  0.38025393100205307  1.0000
  H   H397      1.0  0.22270939080179472  0.8835762568414236  0.48317528449481634  1.0000
  H   H398      1.0  0.043651998443884565  0.8147960989075397  0.4886271490914814  1.0000
  H   H399      1.0  0.019813602986165746  0.8602805628616593  0.5290024351066951  1.0000
  H   H400      1.0  0.19487274532474835  0.9300503373497409  0.5206682074430038  1.0000
  H   H401      1.0  0.09709588366646747  0.7394880656673833  0.4620076784136512  1.0000
  H   H402      1.0  0.1413409098873166  0.671201747525874  0.4752891552911249  1.0000
  H   H403      1.0  0.3194011736010422  0.7395595992123164  0.4909604906219312  1.0000
  H   H404      1.0  0.27024458463857953  0.8071471432629177  0.4756181645207645  1.0000
  H   H405      1.0  0.033662621134237236  0.8629647522355302  0.4454139061629353  1.0000
  H   H406      1.0  0.9451902887527401  0.8403691443290785  0.4203183739414109  1.0000
  H   H407      1.0  0.04851249415076153  0.7309689065973627  0.3850417217548445  1.0000
  H   H408      1.0  0.1422727914337407  0.7546798265242788  0.4122404908922241  1.0000
  H   H409      1.0  0.8103529166871833  0.7512861123057893  0.470107764539685  1.0000
  H   H410      1.0  0.8610794452186812  0.793204757738976  0.4357172169654606  1.0000
  H   H411      1.0  0.9438392031425866  0.6733304181724287  0.4019261524661009  1.0000
  H   H412      1.0  0.8888720975027594  0.6325626321373256  0.4369444415766314  1.0000
  H   H413      1.0  0.0002663375329265971  0.7727718981512856  0.34448881112485613  1.0000
  H   H414      1.0  0.9888437954990302  0.7391112122091452  0.2988150635893737  1.0000
  H   H415      1.0  0.8352136114776657  0.6606714175721046  0.3255556419590958  1.0000
  H   H416      1.0  0.839980241718282  0.6955939913376309  0.3684237279657502  1.0000
  H   H417      1.0  0.7897063187548123  0.7579369914094749  0.3901383371219601  1.0000
  H   H418      1.0  0.7122558202942342  0.811994242420969  0.3769315433211531  1.0000
  H   H419      1.0  0.8627531694188566  0.898238697776851  0.35362840493962827  1.0000
  H   H420      1.0  0.9409380557859949  0.8432105183925922  0.3638680602890848  1.0000
  C   C661      1.0  0.9043388985302129  0.9153669383363856  0.2430510268577681  1.0000
  C   C662      1.0  0.8978805176300012  0.8803221381899358  0.2243217223066924  1.0000
  C   C663      1.0  0.9511904670071726  0.8626436835721271  0.21190212850318246  1.0000
  C   C664      1.0  0.012635977273356191  0.8746878538242773  0.22029489155128815  1.0000
  C   C665      1.0  0.016798561275261248  0.906824361980095  0.2411718391719128  1.0000
  C   C666      1.0  0.964026912720404  0.9282468637813045  0.25123790682965763  1.0000
  H   H421      1.0  0.8504047827655414  0.869844514990882  0.2171359992544422  1.0000
  H   H422      1.0  0.9434220319015921  0.8391975054199281  0.19495371256137653  1.0000
  H   H423      1.0  0.06268597497633732  0.9195878977389751  0.24824250991686572  1.0000
  H   H424      1.0  0.9683670563203959  0.9561742122102203  0.26495133447487895  1.0000
  C   C667      1.0  0.059309990273139546  0.9154211329689478  0.17075720310599607  1.0000
  C   C668      1.0  0.09835025893320487  0.9002388596003704  0.19056154026876515  1.0000
  C   C669      1.0  0.1540084710391036  0.9228746351556508  0.19597343932710592  1.0000
  C   C670      1.0  0.17300471362388534  0.9573752098121511  0.18058125722611035  1.0000
  C   C671      1.0  0.13372134195196556  0.9707031410162827  0.1598619514510983  1.0000
  C   C672      1.0  0.07557329999063876  0.9508942224221761  0.15600790100279308  1.0000
  C   C673      1.0  0.0752562955586349  0.8574029891901683  0.20501110083453578  1.0000
  C   C674      1.0  0.06813770961848764  0.8185708588723798  0.18169807199150645  1.0000
  C   C675      1.0  0.10440946229006769  0.8170664893814861  0.15787013361178354  1.0000
  C   C676      1.0  0.10849816397681651  0.7800907015313643  0.14106078966950006  1.0000
  C   C677      1.0  0.07259240563144242  0.7432840171328561  0.14706268503350736  1.0000
  C   C678      1.0  0.03592792556434943  0.7437014601620748  0.1698662541859783  1.0000
  C   C679      1.0  0.034745810161763924  0.7803921649724074  0.18744039320255884  1.0000
  C   C680      1.0  0.18398955936298123  0.8185391769085947  0.2154263623372355  1.0000
  C   C681      1.0  0.2120646577959951  0.7821165028629138  0.22779347614092565  1.0000
  C   C682      1.0  0.18204236348621178  0.7637247288975857  0.2496877283734419  1.0000
  C   C683      1.0  0.13385290541025335  0.7884647757457656  0.26193373448524016  1.0000
  C   C684      1.0  0.10466036394962747  0.8221606960446983  0.24947780837416267  1.0000
  C   C685      1.0  0.12542263822223484  0.8351574347946216  0.22453769769056622  1.0000
  C   C686      1.0  0.1914403575084182  0.7134025236229292  0.2600061037226281  1.0000
  C   C687      1.0  0.33495449366527497  0.6322994637086277  0.21989725462957654  1.0000
  C   C688      1.0  0.32021976850320455  0.6243204091965737  0.24630276838506449  1.0000
  C   C689      1.0  0.27236611663638816  0.6483791868311362  0.25817132219046646  1.0000
  C   C690      1.0  0.23818897822860008  0.6797675233329145  0.24468396223677663  1.0000
  C   C691      1.0  0.24458706182619472  0.6792894896291519  0.21728536540777552  1.0000
  C   C692      1.0  0.2925691326973324  0.6561918755670664  0.20485164237354483  1.0000
  C   C693      1.0  0.12550485207162046  0.6874717803158394  0.2580865468061422  1.0000
  C   C694      1.0  0.07697176502054022  0.6998541700033694  0.23985378379182307  1.0000
  C   C695      1.0  0.01692228306219934  0.6845756190484911  0.2421830883992098  1.0000
  C   C696      1.0  0.002508369796535792  0.6563695093418461  0.26188529140848343  1.0000
  C   C697      1.0  0.04987205967767494  0.6385359328260646  0.277215506740461  1.0000
  C   C698      1.0  0.11122242084916865  0.6537466360489098  0.2754089836697408  1.0000
  C   C699      1.0  0.17850617506685273  0.725158404439016  0.31222370354333384  1.0000
  C   C700      1.0  0.20280201913465906  0.7369282245116762  0.3369983003813447  1.0000
  C   C701      1.0  0.2676659233294147  0.7429133976397826  0.3399028665252178  1.0000
  C   C702      1.0  0.30663628111218183  0.7446569066306937  0.3181155927538727  1.0000
  C   C703      1.0  0.2805154307594209  0.7365199090405333  0.2932380543777537  1.0000
  C   C704      1.0  0.21766015343767597  0.7240475277850239  0.2894816974675746  1.0000
  H   H425      1.0  0.014370473627804525  0.8993222784353045  0.16578048435385334  1.0000
  H   H426      1.0  0.18536049832388873  0.9127984333186323  0.21243500234750662  1.0000
  H   H427      1.0  0.21915382281548354  0.9721105370988273  0.1842970430595057  1.0000
  H   H428      1.0  0.0456271855787691  0.9622969392714417  0.14044939767159934  1.0000
  H   H429      1.0  0.13729815526039416  0.8429483023812763  0.15273436009095617  1.0000
  H   H430      1.0  0.14141971116924487  0.7790232242801999  0.12484245126364887  1.0000
  H   H431      1.0  0.015230318275354149  0.7123648108762966  0.1758366615500937  1.0000
  H   H432      1.0  0.01449958196518697  0.7769289526958093  0.2068983623665172  1.0000
  H   H433      1.0  0.20593410106727472  0.827867453001335  0.19636158947961935  1.0000
  H   H434      1.0  0.2527663630148608  0.7657793789566363  0.2183894638655229  1.0000
  H   H435      1.0  0.11112665939270014  0.7757785036130793  0.2799141898081179  1.0000
  H   H436      1.0  0.061295606389291324  0.833904697601373  0.25977599910803356  1.0000
  H   H437      1.0  0.3544377356218833  0.6052368570188602  0.2578927744991152  1.0000
  H   H438      1.0  0.26658179098874724  0.6456818375253195  0.2799141898081179  1.0000
  H   H439      1.0  0.2153149214357474  0.7007876296101381  0.2059133531391301  1.0000
  H   H440      1.0  0.29863945019827215  0.6612698110093989  0.18400254952205533  1.0000
  H   H441      1.0  0.08681907453482762  0.7236594372810128  0.2245114576906563  1.0000
  H   H442      1.0  0.9806460573887326  0.6976570532778058  0.229414300750745  1.0000
  H   H443      1.0  0.038682322319630424  0.6123845014845725  0.290650386694331  1.0000
  H   H444      1.0  0.1463896395832372  0.6397326568265014  0.28885597439280003  1.0000
  H   H445      1.0  0.1283798497998046  0.7170194622468555  0.3114344850845052  1.0000
  H   H446      1.0  0.17187391898608664  0.7395028252263633  0.3540825587842228  1.0000
  H   H447      1.0  0.35606082510964976  0.7495960008483883  0.31835377121459335  1.0000
  H   H448      1.0  0.31316051273088596  0.7374637715700063  0.27615581443640724  1.0000
  C   C705      1.0  0.893973962516553  0.685335433783685  0.2796336236552351  1.0000
  C   C706      1.0  0.9336089124868406  0.64608702511083  0.2675854267735268  1.0000
  H   H449      1.0  0.8413370942310598  0.6767281071451604  0.2793126882717217  1.0000
  H   H450      1.0  0.8983845005211464  0.7144478008691284  0.2664692175465902  1.0000
  H   H451      1.0  0.9091130767162265  0.6330917174603736  0.24873501453055927  1.0000
  H   H452      1.0  0.9293779837980459  0.6184065989766125  0.2805984482673069  1.0000
  C   C707      1.0  0.4603866983534791  0.6288380132631255  0.22531682384173718  1.0000
  C   C708      1.0  0.3998322277522818  0.618434979859432  0.20790355620921963  1.0000
  H   H453      1.0  0.5003815102483814  0.6128042232676983  0.2149055992621005  1.0000
  H   H454      1.0  0.4574761810593774  0.6112756506289864  0.244445783776056  1.0000
  H   H455      1.0  0.4003441521689362  0.5826858482334676  0.20232049161300503  1.0000
  H   H456      1.0  0.4070197349771975  0.6359676809505243  0.1889170996590269  1.0000
  C   C709      1.0  0.8438110918495624  0.9410297551513928  0.2515023252902882  1.0000
  C   C710      1.0  0.8229072782160515  0.9765615279638216  0.23132376535957327  1.0000
  H   H457      1.0  0.84876063469917  0.957723148309963  0.2714063744527149  1.0000
  H   H458      1.0  0.8049273237947634  0.9174232566539066  0.2551920729699268  1.0000
  H   H459      1.0  0.8641786622204977  0.9907264495149279  0.2213101777016482  1.0000
  H   H460      1.0  0.80223504211951  0.004994483200860822  0.24305910070389425  1.0000
  C   C711      1.0  0.6682727443378048  0.88207680220953  0.349829660337287  1.0000
  C   C712      1.0  0.7372587264116017  0.8962288124365217  0.3568801464669247  1.0000
  H   H461      1.0  0.6394674190940267  0.9127682321377283  0.3486730818797198  1.0000
  H   H462      1.0  0.648128507414259  0.8641137999159835  0.36654454027989486  1.0000
  H   H463      1.0  0.757325075965721  0.9150612914461962  0.3394164172961188  1.0000
  H   H464      1.0  0.7355689997829755  0.9190780985955248  0.37486867563592846  1.0000
  C   C713      1.0  0.30027134681056206  0.6999745365323605  0.3816668540741247  1.0000
  C   C714      1.0  0.2974851990335812  0.7449315379302254  0.3675396418149396  1.0000
  H   H465      1.0  0.31406099957568917  0.6719116486224868  0.36789287258295755  1.0000
  H   H466      1.0  0.2531081700288633  0.6913590402518611  0.3901887986602484  1.0000
  H   H467      1.0  0.3448309041813237  0.7593646935857947  0.3659773525895346  1.0000
  H   H468      1.0  0.272233050438522  0.7689787920643912  0.3806233094623232  1.0000
  C   C715      1.0  0.3190581428925476  0.9548058149290876  0.41078921705105337  1.0000
  C   C716      1.0  0.333424849585954  0.9872552370431369  0.43515810312122655  1.0000
  H   H469      1.0  0.3645024158121641  0.9401276735584365  0.4024448970797043  1.0000
  H   H470      1.0  0.3028211607873153  0.9747170682743481  0.39397139557033745  1.0000
  H   H471      1.0  0.28840849067410274  0.0005574925400348985  0.44350847847717007  1.0000
  H   H472      1.0  0.35557899398644727  0.017953056164530468  0.4281722077605979  1.0000
  C   C717      1.0  0.7393303452771457  0.6492794334846614  0.4515136969112218  1.0000
  C   C718      1.0  0.7953222644298011  0.6619069740212397  0.47050943838445963  1.0000
  H   H473      1.0  0.7202583795764327  0.6170371822285904  0.45872565996338194  1.0000
  H   H474      1.0  0.7587172143424864  0.6416549990478098  0.43111310621203847  1.0000
  H   H475      1.0  0.8180798049989183  0.6309789986185401  0.4772591737458991  1.0000
  H   H476      1.0  0.7811699876063094  0.679677739501695  0.4891580044742741  1.0000
  C   C719      1.0  0.4811942080369837  0.9086615835108757  0.36105634337566217  1.0000
  C   C720      1.0  0.4185777987047163  0.9085181932275581  0.3450923311227839  1.0000
  H   H477      1.0  0.524703578493209  0.9074405869310106  0.3480069895743146  1.0000
  H   H478      1.0  0.48875294575385386  0.9413854772933111  0.37195805410746086  1.0000
  H   H479      1.0  0.4013284649562862  0.9428652247815993  0.3431303865141358  1.0000
  H   H480      1.0  0.3824034058273629  0.8901933776500782  0.3568074818517895  1.0000
  C   C721      1.0  0.7347202018493151  0.035083639244688714  0.5129637397771502  1.0000
  C   C722      1.0  0.6992954368987727  0.029949818060855282  0.5406873089127278  1.0000
  H   H481      1.0  0.7098481289373663  0.014727959251256584  0.4973307552154429  1.0000
  H   H482      1.0  0.7816511996369931  0.01854582798489668  0.5133694505449878  1.0000
  H   H483      1.0  0.6851039883530451  0.06228634163884772  0.5489670381150678  1.0000
  H   H484      1.0  0.7323035241730806  0.017016108518256523  0.5555048350156965  1.0000
  C   C723      1.0  0.45035445641097793  0.02886149235532276  0.11481110114424634  1.0000
  C   C724      1.0  0.4703733099484127  0.06524076379332433  0.09474153813623408  1.0000
  H   H485      1.0  0.4302372815221394  0.04427888463948193  0.13341223338806985  1.0000
  H   H486      1.0  0.40954831268132164  0.011296817533814174  0.10594924763621286  1.0000
  H   H487      1.0  0.438629149718504  0.06350126140623202  0.07747293168500624  1.0000
  H   H488      1.0  0.5167057628281103  0.057754966699717025  0.0853873193501391  1.0000
  C   C725      1.0  0.4646440190016083  0.1654382287439911  0.36713594950863343  1.0000
  C   C726      1.0  0.46007021286986816  0.14864014023476657  0.3375614511486419  1.0000
  H   H489      1.0  0.472170301085642  0.1380987913296714  0.38046990638592687  1.0000
  H   H490      1.0  0.4176775604910329  0.1785969200991087  0.3732680356414244  1.0000
  H   H491      1.0  0.41815472064459347  0.1273458360963001  0.3342875065444987  1.0000
  H   H492      1.0  0.4995394252407033  0.1256490263310367  0.3319723311678327  1.0000
  C   C727      1.0  0.08303666326405744  0.6996952059913567  0.13072303708961114  1.0000
  C   C728      1.0  0.14084206593310764  0.675711453507201  0.1430267712012112  1.0000
  H   H493      1.0  0.04031642643164601  0.6772602141690319  0.12964800447791777  1.0000
  H   H494      1.0  0.09267749274462445  0.7067556301867913  0.10944683777804969  1.0000
  H   H495      1.0  0.16855890774901794  0.6987378696781581  0.15619057177139664  1.0000
  H   H496      1.0  0.1740887358233095  0.6666125237609003  0.12653331648861235  1.0000
  C   C729      1.0  0.9470819674925475  0.2985773406298646  0.3232101896594568  1.0000
  C   C730      1.0  0.8791349216487484  0.28123360924150465  0.31649274968252183  1.0000
  H   H497      1.0  0.9608421956358778  0.2911333876505205  0.34419815266431564  1.0000
  H   H498      1.0  0.9804246262991877  0.281307167412466  0.30985604816684803  1.0000
  H   H499      1.0  0.8808584111431947  0.24379645977178774  0.31476898353459437  1.0000
  H   H500      1.0  0.8688422575798732  0.29135683399456414  0.29536349437045584  1.0000
  C   C731      1.0  0.6788398051693926  0.4025253835021302  0.30519743895207463  1.0000
  C   C732      1.0  0.6808673120069335  0.4482203542607649  0.29256388822622237  1.0000
  H   H501      1.0  0.6755209503900055  0.406879493417297  0.3277335619516177  1.0000
  H   H502      1.0  0.7254630817588432  0.38541453704117495  0.3015258574262198  1.0000
  H   H503      1.0  0.6483062432839012  0.4707743438245931  0.30417004203252535  1.0000
  H   H504      1.0  0.6645173322744964  0.44700216354257577  0.2714608729140663  1.0000
  C   C733      1.0  0.27197465254324177  0.3868212012091224  0.16681918465797918  1.0000
  C   C734      1.0  0.2675303813027255  0.3619090720472355  0.13925729429107717  1.0000
  H   H505      1.0  0.3184360459782801  0.4037785535636794  0.16936143695694242  1.0000
  H   H506      1.0  0.26986555627940156  0.3624300625006675  0.18266935568047912  1.0000
  H   H507      1.0  0.26653801498898916  0.3856853505154104  0.12275415096312695  1.0000
  H   H508      1.0  0.22242338666204586  0.34321479522059456  0.13700711337572646  1.0000
  C   C735      1.0  0.22872859489476305  0.6252660637837159  0.5124268290097629  1.0000
  C   C736      1.0  0.2621011936549151  0.6549291190115145  0.4917093398501292  1.0000
  H   H509      1.0  0.17890178297222967  0.6362123635548173  0.5138114936203931  1.0000
  H   H510      1.0  0.25066788772902016  0.6297069647242577  0.532617499709667  1.0000
  H   H511      1.0  0.266331297789124  0.63682322750761  0.4720858568405853  1.0000
  H   H512      1.0  0.31154091871540546  0.6596604116392631  0.497795001367695  1.0000
  C   C737      1.0  0.13234147009386335  0.6420356375092794  0.3657835802825077  1.0000
  C   C738      1.0  0.06966000796136074  0.6226649054141987  0.37608378947791016  1.0000
  H   H513      1.0  0.14241888922781484  0.6731946080928649  0.37752295254989165  1.0000
  H   H514      1.0  0.12547881328941338  0.652123299851464  0.34477745112386504  1.0000
  H   H515      1.0  0.03551459999168505  0.6508685322105161  0.3787945833147562  1.0000
  H   H516      1.0  0.07590185459284066  0.6109842331924054  0.39713230632871493  1.0000
  C   C739      1.0  0.21165071237723956  0.3726878865027227  0.26083569141208734  1.0000
  C   C740      1.0  0.18603465656155277  0.3623960263540689  0.28908204208433147  1.0000
  H   H517      1.0  0.18027652625625892  0.36013910349211986  0.24411071916182187  1.0000
  H   H518      1.0  0.21319982205661225  0.4088508932864064  0.2582238021902863  1.0000
  H   H519      1.0  0.18959054749074575  0.325932097639652  0.29307052207063666  1.0000
  H   H520      1.0  0.1338153312371383  0.36845836573997803  0.2895785836210881  1.0000
  C   C741      1.0  0.028619019811545687  0.3232718655526879  0.5068740413365213  1.0000
  C   C742      1.0  0.9767707252827269  0.3300029492687383  0.4856660660247255  1.0000
  H   H521      1.0  0.008129797511644998  0.327790326202543  0.5277711735724613  1.0000
  H   H522      1.0  0.04281401250811445  0.2876547292533157  0.506436035184179  1.0000
  H   H523      1.0  0.9944851144930629  0.32455522051730584  0.4648153584040108  1.0000
  H   H524      1.0  0.9670963196106895  0.3655378649934867  0.48575084140904984  1.0000
  C   C743      1.0  0.6101392803218514  0.4944526805699982  0.3851164048315111  1.0000
  C   C744      1.0  0.5733498307466859  0.514207774174816  0.3610119372219685  1.0000
  H   H525      1.0  0.5913352277675702  0.5075836140108076  0.4044451924574515  1.0000
  H   H526      1.0  0.6571160160606616  0.5094711946832019  0.3840062509891691  1.0000
  H   H527      1.0  0.5878059049590193  0.5489483529005041  0.35923569107422126  1.0000
  H   H528      1.0  0.5904689383941532  0.499628454886463  0.3415600234426047  1.0000
  C   C745      1.0  0.13804636898048242  0.9309501789691409  0.5733884041850608  1.0000
  C   C746      1.0  0.09237597252383202  0.932786594596758  0.5493142134984911  1.0000
  H   H529      1.0  0.13501214738460546  0.9638138936717651  0.5843708533781207  1.0000
  H   H530      1.0  0.18769424380266644  0.9296328778592459  0.5659523919029007  1.0000
  H   H531      1.0  0.09265857472813632  0.9669124655177785  0.5413412904489439  1.0000
  H   H532      1.0  0.04342220214390213  0.9287213250771483  0.5561144103982189  1.0000
  C   C747      1.0  0.1591601828335006  0.003349687382691924  0.13995588382714003  1.0000
  C   C748      1.0  0.1501760459964007  0.9933752288807063  0.10952414485470732  1.0000
  H   H533      1.0  0.1377562917750373  0.03593670785665437  0.14494491519462507  1.0000
  H   H534      1.0  0.21047268535280914  0.007134282588917351  0.14316503581612108  1.0000
  H   H535      1.0  0.16861663870406918  0.02175030742700179  0.09820844766279163  1.0000
  H   H536      1.0  0.0989469297470068  0.9926480603407267  0.10582955286739307  1.0000
  C   C749      1.0  0.37267588656621603  0.7637748528991971  0.852018852459125  1.0000
  C   C750      1.0  0.37153403863223117  0.7767856883332439  0.8220346064082327  1.0000
  H   H537      1.0  0.41653550770273756  0.7455239392353444  0.8552948155247997  1.0000
  H   H538      1.0  0.3352623098266136  0.7385947704923125  0.8539384093756108  1.0000
  H   H539      1.0  0.38457174970291524  0.7460493137509497  0.8101176095260738  1.0000
  H   H540      1.0  0.4096128282526768  0.8008017486484332  0.8192814248792244  1.0000
  C   C751      1.0  0.75930661779552  0.7727560159629026  0.08584551011779662  1.0000
  C   C752      1.0  0.8329103988050623  0.7773749720935946  0.08833427318617426  1.0000
  H   H541      1.0  0.7458563816825123  0.7404414610086397  0.09411111008941586  1.0000
  H   H542      1.0  0.7455099646472295  0.7689227226328517  0.06470010711347829  1.0000
  H   H543      1.0  0.8530280461348848  0.7445888929686758  0.084660673198788  1.0000
  H   H544      1.0  0.848056672467988  0.7866671855805739  0.10869516270370755  1.0000
  C   C753      1.0  0.883179019525385  0.79774514970172  0.8391289571187682  1.0000
  C   C754      1.0  0.8862388458045951  0.795782953225833  0.8080163910717502  1.0000
  H   H545      1.0  0.836526290193816  0.7832870617433632  0.8451621386365143  1.0000
  H   H546      1.0  0.9178801363860056  0.7742412408333975  0.8473905201673244  1.0000
  H   H547      1.0  0.8478949539242971  0.818188262216034  0.800150446483374  1.0000
  H   H548      1.0  0.8745091966332952  0.7626845495809036  0.8004471603285092  1.0000
  C   C755      1.0  0.5575821544299725  0.8793760156289363  0.045448021025736196  1.0000
  C   C756      1.0  0.5424448292841034  0.8356195912547514  0.05985579943780395  1.0000
  H   H549      1.0  0.5404996090869288  0.9085745614777422  0.0574518117537508  1.0000
  H   H550      1.0  0.5290065788536439  0.8801099725569106  0.026819639551237007  1.0000
  H   H551      1.0  0.5642246653173849  0.8373359875319386  0.08014335629122149  1.0000
  H   H552      1.0  0.5642177906472852  0.8055026789786697  0.05062941177717617  1.0000
  C   C757      1.0  0.2037262958517869  0.04949348094071904  0.9147970430128006  1.0000
  C   C758      1.0  0.13934760985133673  0.06065709084116011  0.9282137568128868  1.0000
  H   H553      1.0  0.2329098344855051  0.07989353521028963  0.9167004522370342  1.0000
  H   H554      1.0  0.19893940279366204  0.04474358308835247  0.8928604030881222  1.0000
  H   H555      1.0  0.12694675261838503  0.09408852499786009  0.9215447599127086  1.0000
  H   H556      1.0  0.14797178845709608  0.06460826599662206  0.9500212151995473  1.0000
  C   C759      1.0  0.3561621205517964  0.8730512052777727  0.6437620654818874  1.0000
  C   C760      1.0  0.3257209067099199  0.8901146539453593  0.6175987671101831  1.0000
  H   H557      1.0  0.3818907445846609  0.8419928744606325  0.6399512101103569  1.0000
  H   H558      1.0  0.31588783948153937  0.8626236572237402  0.6570374869747665  1.0000
  H   H559      1.0  0.3018125770367089  0.9230457413357  0.6225016101702718  1.0000
  H   H560      1.0  0.28507106594247666  0.8684409166571638  0.6108772902101851  1.0000
  C   C761      1.0  0.6271116990534289  0.8346386509388198  0.9102413753361352  1.0000
  C   C762      1.0  0.6324355778060751  0.8725571029009987  0.9319923167999128  1.0000
  H   H561      1.0  0.5973125857704191  0.8076869701929743  0.9175522430033404  1.0000
  H   H562      1.0  0.6747595701561302  0.8185873714789348  0.9079928091900098  1.0000
  H   H563      1.0  0.6629293235275134  0.8630358633556586  0.9497265198159437  1.0000
  H   H564      1.0  0.6621827580162875  0.8995300367680277  0.9245018060564015  1.0000
  C   C763      1.0  0.266506750392877  0.023089457524530177  0.8440459294095777  1.0000
  C   C764      1.0  0.22766317302431954  0.02971792354373126  0.8179674064221977  1.0000
  H   H565      1.0  0.2679246862494971  0.056433305219312  0.8546670739884936  1.0000
  H   H566      1.0  0.23989276740036056  0.0025157344100024126  0.8579672585925466  1.0000
  H   H567      1.0  0.25537676746909815  0.047109910246410536  0.8027643541667066  1.0000
  H   H568      1.0  0.1893216369488414  0.053460356666799935  0.821834778716611  1.0000
  C   C765      1.0  0.793557336034326  0.9019786488033107  0.6971766129907909  1.0000
  C   C766      1.0  0.8039389309700089  0.8606442151680691  0.6778437884417875  1.0000
  H   H569      1.0  0.808196178794967  0.8920644189384703  0.7169555175382628  1.0000
  H   H570      1.0  0.8263086342292589  0.9285454974228031  0.6913876653183602  1.0000
  H   H571      1.0  0.7844647766652477  0.8670841917850548  0.6578085392798112  1.0000
  H   H572      1.0  0.7762326238378137  0.8311426104347189  0.6844643422652091  1.0000
  C   C767      1.0  0.6831296476119016  0.10497137495300891  0.8865325261867727  1.0000
  C   C768      1.0  0.7539746053285316  0.11415891101442287  0.8793629508267748  1.0000
  H   H573      1.0  0.6741887845418277  0.10917818641724504  0.9084086122655052  1.0000
  H   H574      1.0  0.6553940323195476  0.13185963406466836  0.8774171539103789  1.0000
  H   H575      1.0  0.7690649801142774  0.14412931996974754  0.8913364646318164  1.0000
  H   H576      1.0  0.7594985988123989  0.12163583899728393  0.8576846739781323  1.0000
  C   C769      1.0  0.5962137756935233  0.2699759083878989  0.5953088964174869  1.0000
  C   C770      1.0  0.6180667732477838  0.3147379733113962  0.608105942527393  1.0000
  H   H577      1.0  0.5451539614119916  0.2710101219802099  0.5929291302718118  1.0000
  H   H578      1.0  0.6059686515419753  0.24266849565661494  0.6092847240618072  1.0000
  H   H579      1.0  0.5798446799522581  0.3382842699230164  0.6035179794662232  1.0000
  H   H580      1.0  0.6612066606950497  0.32864913703279514  0.5984859548681166  1.0000
  C   C771      1.0  0.43981690542024304  0.18761462387404979  0.7203566252188924  1.0000
  C   C772      1.0  0.4533119433178119  0.15881908459864857  0.693725043771873  1.0000
  H   H581      1.0  0.4340677086149336  0.16824380143827405  0.7387811420787069  1.0000
  H   H582      1.0  0.3930355932524856  0.20398023286103362  0.7192000467613253  1.0000
  H   H583      1.0  0.48870065091077847  0.17478520435540498  0.6805545822786336  1.0000
  H   H584      1.0  0.40723875133020915  0.15589500214069194  0.6823409207340385  1.0000
  C   C773      1.0  0.7191628982451342  0.3248947583284384  0.09018520241058803  1.0000
  C   C774      1.0  0.7741716111130791  0.2975093534003371  0.07679271014888034  1.0000
  H   H585      1.0  0.7026279203576509  0.3512739929149414  0.07657673476500637  1.0000
  H   H586      1.0  0.7370549869157689  0.3428575761484488  0.1081824734746987  1.0000
  H   H587      1.0  0.7799771539536208  0.26570153199292096  0.08648738088482344  1.0000
  H   H588      1.0  0.8189555899778308  0.3149486169282251  0.08076504244293314  1.0000
  C   C775      1.0  0.9313899399520965  0.09255275124868238  0.01165897498790791  1.0000
  C   C776      1.0  0.9385745125474896  0.10571259751115207  0.9814345320147635  1.0000
  H   H589      1.0  0.90227169847654  0.1187391400658765  0.02204395956763472  1.0000
  H   H590      1.0  0.9785507271641559  0.09334877083078756  0.02129309187790529  1.0000
  H   H591      1.0  0.9271002121401808  0.07693336380080851  0.9678240459076503  1.0000
  H   H592      1.0  0.9890712193310718  0.11299722597129568  0.9779022243345843  1.0000
  C   C777      1.0  0.5792101818629011  0.12649770378753988  0.7869719111440084  1.0000
  C   C778      1.0  0.638072124335796  0.09647819199476283  0.779671135784461  1.0000
  H   H593      1.0  0.5362683774781238  0.10583923849142746  0.7840754188462615  1.0000
  H   H594      1.0  0.5762410277080008  0.15194841499168202  0.7720595173490578  1.0000
  H   H595      1.0  0.628791104936984  0.07838897107698828  0.7607137450803223  1.0000
  H   H596      1.0  0.6436789063556451  0.0702943452526541  0.7946178434254477  1.0000
  C   C779      1.0  0.8268839003692305  0.4535187171945695  0.1440303502746884  1.0000
  C   C780      1.0  0.8435620646110079  0.41841145698299126  0.12170697312056869  1.0000
  H   H597      1.0  0.791713463798436  0.43869465664824997  0.15801203145745016  1.0000
  H   H598      1.0  0.802026575757554  0.4814240425521631  0.1351650653820513  1.0000
  H   H599      1.0  0.8625812019087226  0.3881696089648027  0.13066914416671926  1.0000
  H   H600      1.0  0.7987551702078494  0.4079050448755301  0.11190855346190483  1.0000
  C   C781      1.0  0.1305524282862198  0.6689554759975339  0.04187736257645791  1.0000
  C   C782      1.0  0.09609293477915078  0.6468639562674949  0.06608073480104548  1.0000
  H   H601      1.0  0.09912237036742817  0.6715730116865427  0.024151233406553008  1.0000
  H   H602      1.0  0.17074151541768745  0.6471526907552275  0.035577744136549905  1.0000
  H   H603      1.0  0.05513693945033182  0.6675889510717717  0.07230970708735018  1.0000
  H   H604      1.0  0.12759805162761734  0.6456776129035313  0.08398650704725652  1.0000
  C   C783      1.0  0.0032512742848900267  0.2343589509713687  0.8945801323129865  1.0000
  C   C784      1.0  0.011542291816656114  0.2628280331881011  0.8694906554760569  1.0000
  H   H605      1.0  0.015009923460679975  0.19880213556084372  0.889939689251997  1.0000
  H   H606      1.0  0.9525932766015296  0.23475609018877608  0.8997776707566787  1.0000
  H   H607      1.0  0.005114903004058036  0.298158694772809  0.8753098800714606  1.0000
  H   H608      1.0  0.060600356247138  0.26107719650534933  0.8614349755037167  1.0000
  C   C785      1.0  0.8823699548682876  0.41232083899667876  0.9088324891871267  1.0000
  C   C786      1.0  0.8838460777785048  0.45476054878979544  0.9272852645083826  1.0000
  H   H609      1.0  0.9332214857363308  0.4028322455070286  0.9042990245873082  1.0000
  H   H610      1.0  0.8611882483822263  0.42166080174588205  0.8892493754082134  1.0000
  H   H611      1.0  0.8340475217975157  0.4660229143036729  0.932297104491174  1.0000
  H   H612      1.0  0.9021189311602666  0.48130180462398836  0.914859615320278  1.0000
  C   C787      1.0  0.3782945514403936  0.2311579627563672  0.9976003904207948  1.0000
  C   C788      1.0  0.3738326945435376  0.18825379398864625  0.9794483658677371  1.0000
  H   H613      1.0  0.4249464870577899  0.24672136495123945  0.9963388519635881  1.0000
  H   H614      1.0  0.37742399271521204  0.22039634372824532  0.019103061116194198  1.0000
  H   H615      1.0  0.3929551294078179  0.15948310471085853  0.9899181258317881  1.0000
  H   H616      1.0  0.3233631047104221  0.17954650291806779  0.9760734981870173  1.0000
  C   C789      1.0  0.42699728346211213  0.3320203412686738  0.5793368103184824  1.0000
  C   C790      1.0  0.44773853890135423  0.35154260959202177  0.551986656566238  1.0000
  H   H617      1.0  0.46488456467838113  0.31230333747340144  0.5889144102855969  1.0000
  H   H618      1.0  0.3884849519090546  0.3074289777287078  0.5754553087933484  1.0000
  H   H619      1.0  0.4677339330284281  0.32312200627373977  0.5396498196855208  1.0000
  H   H620      1.0  0.4906418900887257  0.37341768630771505  0.5552424350165974  1.0000
  C   C791      1.0  0.16033876649258846  0.6247962086101729  0.6486245393113454  1.0000
  C   C792      1.0  0.19924624339833855  0.6016746569063957  0.6263992593876582  1.0000
  H   H621      1.0  0.1861434340145012  0.6216884695722049  0.6677494623226011  1.0000
  H   H622      1.0  0.11690268597905652  0.6053248552924663  0.6515513085320653  1.0000
  H   H623      1.0  0.23260916796384973  0.6258896714399377  0.6175442686488318  1.0000
  H   H624      1.0  0.16692603465225256  0.5908058742812266  0.6096480471374828  1.0000
  C   C793      1.0  0.08784601246142199  0.4196653989357143  0.8455860155581358  1.0000
  C   C794      1.0  0.13497038364174208  0.44247067969185133  0.8659825693342561  1.0000
  H   H625      1.0  0.055136786584378816  0.4462263998013258  0.8380107294303001  1.0000
  H   H626      1.0  0.05490073740713908  0.3961455751615607  0.854277510912908  1.0000
  H   H627      1.0  0.116568255597425  0.47499345640807117  0.8727484523879478  1.0000
  H   H628      1.0  0.17949218335020098  0.45189657303977127  0.8554764770626374  1.0000
  C   C795      1.0  0.4992150059217384  0.4047567335383535  0.8166130187345405  1.0000
  C   C796      1.0  0.4897320178714024  0.4063456993798381  0.8474793324747119  1.0000
  H   H629      1.0  0.5408195184344529  0.38312183544503714  0.8120210187503076  1.0000
  H   H630      1.0  0.5100452130593726  0.43886596969716046  0.809540329528056  1.0000
  H   H631      1.0  0.525282284565776  0.42971262660873943  0.8559064093688535  1.0000
  H   H632      1.0  0.4441362069896901  0.42168347451770444  0.8535993078383136  1.0000
  C   C797      1.0  0.1557003086298501  0.17298381956914327  0.7337127851730327  1.0000
  C   C798      1.0  0.0942325928945563  0.17133127767914214  0.7160916160027675  1.0000
  H   H633      1.0  0.192723943955805  0.15244247756881835  0.7235720344386213  1.0000
  H   H634      1.0  0.14656671841320837  0.15573582625068091  0.7527933020305948  1.0000
  H   H635      1.0  0.09055930089944929  0.13813411904902503  0.7062980406517794  1.0000
  H   H636      1.0  0.09753677817482818  0.1917059905642819  0.6981131791414212  1.0000
  C   C799      1.0  0.6051428951569658  0.5091987649031654  0.7516851666497842  1.0000
  C   C800      1.0  0.5891583520408419  0.5281747043335667  0.7237698436687113  1.0000
  H   H637      1.0  0.5637996832310079  0.5144318183369219  0.7655580527559965  1.0000
  H   H638      1.0  0.6457255284333907  0.5274129626127999  0.7607460404648267  1.0000
  H   H639      1.0  0.6288188853229105  0.521236324363678  0.7094629883332199  1.0000
  H   H640      1.0  0.5877493654155044  0.5650693155530586  0.7248759605879903  1.0000
