data_image0
_chemical_formula_structural       C6H4C38H24C6H4C38H24C6H4C38H24C6H4C38H24C6H4C38H24C6H4C38H24C6H4C38H24C6H4C38H24C2H4C2H4C2H4C2H4C2H4C2H4C2H4C2H4C2H4C2H4C2H4C2H4C2H4C2H4C2H4C2H4C2H4C2H4C2H4C2H4C2H4C2H4C2H4C2H4C6H4C38H24C6H4C38H24C6H4C38H24C6H4C38H24C6H4C38H24C6H4C38H24C6H4C38H24C6H4C38H24C2H4C2H4C2H4C2H4C2H4C2H4C2H4C2H4C2H4C2H4C2H4C2H4C2H4C2H4C2H4C2H4C2H4C2H4C2H4C2H4C2H4C2H4C2H4C2H4C6H4C38H24C6H4C38H24C6H4C38H24C6H4C38H24C6H4C38H24C6H4C38H24C6H4C38H24C6H4C38H24C2H4C2H4C2H4C2H4C2H4C2H4C2H4C2H4C2H4C2H4C2H4C2H4C2H4C2H4C2H4C2H4C2H4C2H4C2H4C2H4C2H4C2H4C2H4C2H4C6H4C38H24C6H4C38H24C6H4C38H24C6H4C38H24C6H4C38H24C6H4C38H24C6H4C38H24C6H4C38H24C2H4C2H4C2H4C2H4C2H4C2H4C2H4C2H4C2H4C2H4C2H4C2H4C2H4C2H4C2H4C2H4C2H4C2H4C2H4C2H4C2H4C2H4C2H4C2H4
_chemical_formula_sum              "C1600 H1280"
_cell_length_a       49.97477604154321
_cell_length_b       41.26399820978015
_cell_length_c       56.811402435141126
_cell_angle_alpha    91.35350000011888
_cell_angle_beta     109.25329999958397
_cell_angle_gamma    90.2122999997935

_space_group_name_H-M_alt    "P 1"
_space_group_IT_number       1

loop_
  _space_group_symop_operation_xyz
  'x, y, z'

loop_
  _atom_site_type_symbol
  _atom_site_label
  _atom_site_symmetry_multiplicity
  _atom_site_fract_x
  _atom_site_fract_y
  _atom_site_fract_z
  _atom_site_occupancy
  C   C1        1.0  0.29414397752732435  0.7786883415918866  0.34730712761057714  1.0000
  C   C2        1.0  0.2657040822970461  0.7822816587614417  0.334747296251737  1.0000
  C   C3        1.0  0.24949696912852945  0.7549640710807017  0.32509334806145535  1.0000
  C   C4        1.0  0.26119890636671605  0.7244212001560438  0.3270685279558735  1.0000
  C   C5        1.0  0.2891521677744497  0.7211461435084316  0.3420604977305033  1.0000
  C   C6        1.0  0.3057077402456189  0.7481115585956472  0.35084156188812426  1.0000
  H   H1        1.0  0.2553010464644492  0.8052214484254111  0.3332458611100877  1.0000
  H   H2        1.0  0.22754426485802912  0.7571205166858416  0.31594112167627136  1.0000
  H   H3        1.0  0.29866758966725876  0.6981392321626912  0.3467718333426848  1.0000
  H   H4        1.0  0.32826192537150584  0.7463091979408253  0.36078087601216036  1.0000
  C   C7        1.0  0.2796637485198156  0.663914621718775  0.3025345182002775  1.0000
  C   C8        1.0  0.25665265985356667  0.6621832916700129  0.311078709981514  1.0000
  C   C9        1.0  0.24658863046502255  0.6317929769597271  0.3137589115946196  1.0000
  C   C10       1.0  0.2575649733119645  0.6044448025078939  0.30654083209377153  1.0000
  C   C11       1.0  0.2781265358180314  0.606515520861495  0.29601586500765104  1.0000
  C   C12       1.0  0.2906249413982522  0.6363033184753604  0.29584240728321204  1.0000
  C   C13       1.0  0.24130086609905058  0.6937021127771215  0.3159560427708468  1.0000
  C   C14       1.0  0.21973110232572973  0.6973635730413114  0.2878875987377037  1.0000
  C   C15       1.0  0.19619459394690486  0.6772011897898307  0.27897784013936994  1.0000
  C   C16       1.0  0.17818015686924793  0.6784536665193145  0.2548038017904054  1.0000
  C   C17       1.0  0.18267116397495106  0.7011453579278549  0.2394593211564318  1.0000
  C   C18       1.0  0.20691894439175054  0.7201087684860099  0.24746635353295407  1.0000
  C   C19       1.0  0.22568396340104885  0.7167597572976661  0.2709950545415327  1.0000
  C   C20       1.0  0.24352345235700862  0.6793504075010577  0.36073238245479033  1.0000
  C   C21       1.0  0.2327979703297502  0.6798650754137259  0.37996007795201087  1.0000
  C   C22       1.0  0.2050259523439184  0.6884334817059689  0.3763920712116691  1.0000
  C   C23       1.0  0.18920105751035937  0.698446497913554  0.3529211894445702  1.0000
  C   C24       1.0  0.20051836955478003  0.6996422087090651  0.33431458450905044  1.0000
  C   C25       1.0  0.22793010103449332  0.6899141825006532  0.3373510272551437  1.0000
  C   C26       1.0  0.18968104699184887  0.6859044597052837  0.39746625216259507  1.0000
  C   C27       1.0  0.1751518358573519  0.5820163828798502  0.38484860156227524  1.0000
  C   C28       1.0  0.19914890180764452  0.5936409014191314  0.4028956654512175  1.0000
  C   C29       1.0  0.20313485327464917  0.6262676650585594  0.4063685502136411  1.0000
  C   C30       1.0  0.18295860928498847  0.6487257722434386  0.3931932237035658  1.0000
  C   C31       1.0  0.15955844522544455  0.6355482033522506  0.37416509784629115  1.0000
  C   C32       1.0  0.15520967336253064  0.6028766724803437  0.3709421414180055  1.0000
  C   C33       1.0  0.16282131523677396  0.7086676877132639  0.3927157486771531  1.0000
  C   C34       1.0  0.1654849582052099  0.7411798222023828  0.3874523325656819  1.0000
  C   C35       1.0  0.14306337472396352  0.7613848434092375  0.3813123021479062  1.0000
  C   C36       1.0  0.11703520955009933  0.7497977459937941  0.3804431483888893  1.0000
  C   C37       1.0  0.11430079224247817  0.7189424978080384  0.3877395636362583  1.0000
  C   C38       1.0  0.137060860259923  0.6987427135292922  0.39459953686729693  1.0000
  C   C39       1.0  0.1960801499184467  0.6862542978744806  0.44418419927816205  1.0000
  C   C40       1.0  0.20930507960443465  0.6952779661796002  0.46916024646055415  1.0000
  C   C41       1.0  0.23333956382448445  0.7143536094131007  0.47612653249044246  1.0000
  C   C42       1.0  0.24373242739772344  0.7255793562812626  0.4580701429173906  1.0000
  C   C43       1.0  0.22982871530159396  0.717301215544788  0.4332806094171909  1.0000
  C   C44       1.0  0.20673251332066972  0.6964512302587708  0.42594875657020537  1.0000
  H   H5        1.0  0.28786519960791157  0.6868746686562919  0.2987911885986748  1.0000
  H   H6        1.0  0.22877659693726973  0.6285759960205652  0.3203167326605065  1.0000
  H   H7        1.0  0.24779996958106884  0.5816337014127881  0.30719922539191086  1.0000
  H   H8        1.0  0.3079105165277266  0.6398690727052888  0.2882867380175955  1.0000
  H   H9        1.0  0.1914132876185037  0.6591481096352392  0.2906424058236863  1.0000
  H   H10       1.0  0.16093620772122977  0.661862887590064  0.24906664092616534  1.0000
  H   H11       1.0  0.21267896310766354  0.7360012188746856  0.23498299278381277  1.0000
  H   H12       1.0  0.24534972210415112  0.7304801577562348  0.2758518708258243  1.0000
  H   H13       1.0  0.2645219646782782  0.6699699570839633  0.3641530433862  1.0000
  H   H14       1.0  0.24501497363526262  0.6701278239084226  0.39753526222500624  1.0000
  H   H15       1.0  0.16696166556299058  0.7054711597333324  0.3478648035203326  1.0000
  H   H16       1.0  0.187146144599711  0.7086702218603068  0.31669277181550703  1.0000
  H   H17       1.0  0.21395366022313456  0.5769172753167569  0.41531001613794755  1.0000
  H   H18       1.0  0.22198402123172986  0.6343939877538457  0.42161790886969647  1.0000
  H   H19       1.0  0.1449325482389204  0.6521174290523392  0.3615586380669029  1.0000
  H   H20       1.0  0.13624746745200011  0.592779154905287  0.35722406009275015  1.0000
  H   H21       1.0  0.18545166167515378  0.7501588362437893  0.38646567518688385  1.0000
  H   H22       1.0  0.1443311202549619  0.7858037715144649  0.3748757149754444  1.0000
  H   H23       1.0  0.0940102427397582  0.7104577871995029  0.38737772709280494  1.0000
  H   H24       1.0  0.13402548058204256  0.6748520176995118  0.39975850531674034  1.0000
  H   H25       1.0  0.17680245186753274  0.6718726137987098  0.4389114574825812  1.0000
  H   H26       1.0  0.2010729693402626  0.6860172666491996  0.48323829919244093  1.0000
  H   H27       1.0  0.2615548661305328  0.7411059187924008  0.4629474757067234  1.0000
  H   H28       1.0  0.237122706861178  0.7268723078090165  0.41934990249423615  1.0000
  C   C45       1.0  0.21811969502595202  0.7472952819471304  0.1698930749449242  1.0000
  C   C46       1.0  0.24367023234718543  0.762324466532307  0.17978426853895468  1.0000
  C   C47       1.0  0.2674465833620525  0.7452329723647306  0.19065428593713116  1.0000
  C   C48       1.0  0.2664007257596746  0.7113354162105756  0.19154768647483303  1.0000
  C   C49       1.0  0.24040352627276662  0.6960701590721522  0.17999764019138284  1.0000
  C   C50       1.0  0.2163481134138883  0.7141318792831141  0.1694359299098705  1.0000
  H   H29       1.0  0.2455843917394605  0.7891030670115061  0.18055270490958764  1.0000
  H   H30       1.0  0.28648592491659486  0.7590332037065853  0.200254145159577  1.0000
  H   H31       1.0  0.23920662428878067  0.6694753914642225  0.17822706580632983  1.0000
  H   H32       1.0  0.19607447359796698  0.7023657231320118  0.1606391986029454  1.0000
  C   C51       1.0  0.27032309976012053  0.6494431610215103  0.22463334855895326  1.0000
  C   C52       1.0  0.2926674363240573  0.6580332025306584  0.2163838483955808  1.0000
  C   C53       1.0  0.31550295243008236  0.637576518652074  0.22175544244272363  1.0000
  C   C54       1.0  0.31722434528023186  0.6111431540267667  0.2356861493656784  1.0000
  C   C55       1.0  0.2956257661362842  0.6028594884271712  0.244178117315901  1.0000
  C   C56       1.0  0.2714594363434413  0.6213725600533014  0.23724726888562925  1.0000
  C   C57       1.0  0.2948586717841689  0.6929578160904493  0.20605285553894054  1.0000
  C   C58       1.0  0.3105931880104448  0.7109226347933042  0.23184023723886987  1.0000
  C   C59       1.0  0.3395493656889614  0.7141585278931897  0.24106893423375275  1.0000
  C   C60       1.0  0.3532230872554268  0.7324142391880247  0.26225315825717216  1.0000
  C   C61       1.0  0.3379993300174367  0.7457832041590703  0.2758947689727286  1.0000
  C   C62       1.0  0.30916561089746897  0.7389552872488403  0.268564781262565  1.0000
  C   C63       1.0  0.2958573655877928  0.7218154413181935  0.24741226456511825  1.0000
  C   C64       1.0  0.29904635524780326  0.6685681200756417  0.16516346099188786  1.0000
  C   C65       1.0  0.3090770187882181  0.6676571863641322  0.1451199546487575  1.0000
  C   C66       1.0  0.3297305057324475  0.6889358253832066  0.14365731435300422  1.0000
  C   C67       1.0  0.3390216427109477  0.7125934643225534  0.16278932833126003  1.0000
  C   C68       1.0  0.32776389286352675  0.7143811303823053  0.18189560342137331  1.0000
  C   C69       1.0  0.30866047216202985  0.6915959986666745  0.18444692408008395  1.0000
  C   C70       1.0  0.34026701705416623  0.6853909701517299  0.12022317578129715  1.0000
  C   C71       1.0  0.3711893510846975  0.5850380808781601  0.13295348064566123  1.0000
  C   C72       1.0  0.34681559525658834  0.5914655561912363  0.11419244238128619  1.0000
  C   C73       1.0  0.3377574238054057  0.622761090294777  0.1098490982640704  1.0000
  C   C74       1.0  0.35283405472585394  0.6493230972342585  0.12405323424511928  1.0000
  C   C75       1.0  0.37723874682559316  0.6413889464100165  0.1441101695733675  1.0000
  C   C76       1.0  0.386915460843403  0.6101829269041085  0.1478822222820278  1.0000
  C   C77       1.0  0.3625067262804773  0.7131479836077117  0.11927195600211561  1.0000
  C   C78       1.0  0.35469335028647786  0.7459867432696515  0.1186691437812696  1.0000
  C   C79       1.0  0.3737750748649456  0.7706339388524912  0.12018176974385042  1.0000
  C   C80       1.0  0.40094065519655936  0.7633952651142882  0.12181525657249198  1.0000
  C   C81       1.0  0.40794556214379013  0.7318891878320415  0.11957783844091124  1.0000
  C   C82       1.0  0.3893630968139445  0.7067862232076543  0.11834386391952592  1.0000
  C   C83       1.0  0.32080428773432024  0.6806997584367481  0.07191725117554353  1.0000
  C   C84       1.0  0.30049447312633976  0.6830189247809182  0.049100472891893496  1.0000
  C   C85       1.0  0.27484049504669217  0.6964534692466627  0.04786705791155476  1.0000
  C   C86       1.0  0.26999597232901656  0.7085004930859009  0.06884331917932962  1.0000
  C   C87       1.0  0.2907983885477327  0.705348211695356  0.09153438724118194  1.0000
  C   C88       1.0  0.31631948193501663  0.6910375976081108  0.09365355569825266  1.0000
  H   H33       1.0  0.25257159512629473  0.6652766695674294  0.223180406974674  1.0000
  H   H34       1.0  0.33358722659487905  0.6442701353054963  0.21757753596161256  1.0000
  H   H35       1.0  0.337408050453705  0.5976779646498446  0.24176276513150866  1.0000
  H   H36       1.0  0.25474078268011163  0.6161795938631274  0.24462948042680674  1.0000
  H   H37       1.0  0.3522304653218605  0.7029669959885418  0.23121728154034707  1.0000
  H   H38       1.0  0.3758871835975414  0.7355082569796434  0.26754641655779415  1.0000
  H   H39       1.0  0.29677884385958525  0.7472922210943587  0.2802647845464979  1.0000
  H   H40       1.0  0.27354717319687233  0.7168099112414308  0.24263191889052554  1.0000
  H   H41       1.0  0.28313093460794503  0.6516459088490519  0.16482810939130582  1.0000
  H   H42       1.0  0.29965873704496504  0.6495074559591463  0.13015185862544829  1.0000
  H   H43       1.0  0.35513345918776573  0.7304258805242022  0.16316608596928883  1.0000
  H   H44       1.0  0.33468526307438234  0.7347334162228346  0.1952238711508464  1.0000
  H   H45       1.0  0.3337033195121208  0.5721076471031893  0.10357906780980652  1.0000
  H   H46       1.0  0.31729660342469124  0.6273478309480249  0.09537078717019862  1.0000
  H   H47       1.0  0.38961231043198774  0.6602822488259711  0.15701113445693768  1.0000
  H   H48       1.0  0.40572391619957027  0.6039765134471025  0.16290347470476185  1.0000
  H   H49       1.0  0.3332936863360047  0.7521417540439321  0.11787459549512971  1.0000
  H   H50       1.0  0.3684725228465729  0.7953505477813221  0.12365297588313427  1.0000
  H   H51       1.0  0.42923369406554684  0.727248115407569  0.12020993330986147  1.0000
  H   H52       1.0  0.39597113835693154  0.6824009259244957  0.11634014743173235  1.0000
  H   H53       1.0  0.3406222802469328  0.6696548074655446  0.07272802615203415  1.0000
  H   H54       1.0  0.3039496537803113  0.6727920422355919  0.03308808676198873  1.0000
  H   H55       1.0  0.2493948181033017  0.7189749153715083  0.06672732145485617  1.0000
  H   H56       1.0  0.2861876457790137  0.7138552589185496  0.10827883957369211  1.0000
  C   C89       1.0  0.3922514410384465  0.008754365751657334  0.4028415764833817  1.0000
  C   C90       1.0  0.4194695938513851  0.00035532736862542116  0.4171005474869951  1.0000
  C   C91       1.0  0.4264850358462974  0.9684141407761835  0.41978447937374463  1.0000
  C   C92       1.0  0.4069796120099355  0.9442535248233246  0.41003727434236675  1.0000
  C   C93       1.0  0.38081747426809937  0.9527925294302522  0.39391876192729447  1.0000
  C   C94       1.0  0.37283334580830607  0.9844573716982074  0.3903824625129254  1.0000
  H   H57       1.0  0.43419007256872677  0.019316625651377987  0.4265996893210571  1.0000
  H   H58       1.0  0.44785242275730364  0.9618613448319027  0.4307720003917023  1.0000
  H   H59       1.0  0.3654526600721148  0.9346333597318456  0.38384702308890173  1.0000
  H   H60       1.0  0.3509398194528426  0.9910513660659064  0.3793949414949677  1.0000
  C   C95       1.0  0.3665843985838987  0.884662599760222  0.4142580789703821  1.0000
  C   C96       1.0  0.39153229250330684  0.8799668853560499  0.40932479207639155  1.0000
  C   C97       1.0  0.3949998240165455  0.8494676450238469  0.39975104476945267  1.0000
  C   C98       1.0  0.37453016040227427  0.8259337830950911  0.3939448738428014  1.0000
  C   C99       1.0  0.34843037809232547  0.8336801901513268  0.39581933634883565  1.0000
  C   C100      1.0  0.3446761031647816  0.8624750050191508  0.4069299563970403  1.0000
  C   C101      1.0  0.4165867602036596  0.906709892163767  0.415571135293017  1.0000
  C   C102      1.0  0.4326189390699378  0.8996502698978351  0.4442625350246828  1.0000
  C   C103      1.0  0.4482915622262499  0.8712261555628834  0.44965837585051066  1.0000
  C   C104      1.0  0.4663132739185617  0.8654574055580123  0.47308262919706157  1.0000
  C   C105      1.0  0.4683059503962719  0.887412917978306  0.49218909080085704  1.0000
  C   C106      1.0  0.4501445139508175  0.9140107252621694  0.4875299790196894  1.0000
  C   C107      1.0  0.4335485875958256  0.9200491791989819  0.46419711737741287  1.0000
  C   C108      1.0  0.42035788499340515  0.9000183988654685  0.3719847529014613  1.0000
  C   C109      1.0  0.4339241190759563  0.8880350436508325  0.35620009997751356  1.0000
  C   C110      1.0  0.4620028436969913  0.8772098433170484  0.36591559768291876  1.0000
  C   C111      1.0  0.47662194888580994  0.885917375255396  0.3903638111447062  1.0000
  C   C112      1.0  0.46321491022977596  0.9003540102618919  0.40581646971435137  1.0000
  C   C113      1.0  0.43383403477221627  0.9026816325903732  0.3972051330075256  1.0000
  C   C114      1.0  0.47354356687518  0.8525695684320205  0.34901745807628204  1.0000
  C   C115      1.0  0.40356345088112117  0.7798113157452597  0.3254402635103333  1.0000
  C   C116      1.0  0.4099093917802659  0.7971048384176085  0.3074398280419391  1.0000
  C   C117      1.0  0.43092163738784484  0.8210212960380677  0.3143706764722109  1.0000
  C   C118      1.0  0.44757845996569734  0.8262571958901217  0.33927771359219183  1.0000
  C   C119      1.0  0.4396367720922912  0.8096276912199263  0.35692377306442036  1.0000
  C   C120      1.0  0.41840711337729364  0.7866835457013562  0.3503622217248896  1.0000
  C   C121      1.0  0.0031512097350735032  0.8367059087519874  0.3642556259114058  1.0000
  C   C122      1.0  0.02839714817522116  0.85477342274696  0.3732064175198219  1.0000
  C   C123      1.0  0.05459124424642136  0.8405364723239332  0.38314759678068  1.0000
  C   C124      1.0  0.056035751729758755  0.807419578101359  0.3836959470063258  1.0000
  C   C125      1.0  0.031748750328513854  0.7891123498408845  0.37616825479303817  1.0000
  C   C126      1.0  0.006111272059402484  0.8034036989075861  0.3661170324596866  1.0000
  C   C127      1.0  0.48568772639766994  0.8511210772123976  0.3078016645853925  1.0000
  C   C128      1.0  0.4939293747307555  0.8650062279522243  0.28984226212708064  1.0000
  C   C129      1.0  0.49956344714067935  0.8973783732573359  0.29040553344730186  1.0000
  C   C130      1.0  0.4942630556671991  0.9168314853596576  0.30847870925175114  1.0000
  C   C131      1.0  0.4846163097620665  0.9037395639375045  0.32646049335192595  1.0000
  C   C132      1.0  0.4798808244902463  0.8702724783762534  0.3265481547825565  1.0000
  H   H61       1.0  0.3629264554337736  0.9073230227443044  0.42187716288794397  1.0000
  H   H62       1.0  0.41454328409901975  0.8431234377677782  0.39657285162489314  1.0000
  H   H63       1.0  0.3782251416183113  0.8028424342111542  0.38626797068375984  1.0000
  H   H64       1.0  0.324696734497674  0.8675066555691708  0.4090729986054317  1.0000
  H   H65       1.0  0.44724492611348443  0.8542838197298324  0.4347055739491413  1.0000
  H   H66       1.0  0.4795186573769132  0.8441061950386929  0.4761787563214564  1.0000
  H   H67       1.0  0.4505402884205936  0.9309198398182521  0.002999423820731928  1.0000
  H   H68       1.0  0.42134323094640913  0.9428432320266852  0.4615523533639238  1.0000
  H   H69       1.0  0.3977159162309394  0.9053582341391718  0.36422018831178926  1.0000
  H   H70       1.0  0.4217358688031775  0.8861033068695198  0.3373454318446779  1.0000
  H   H71       1.0  0.4980520417462628  0.8802945837024351  0.3992791651535057  1.0000
  H   H72       1.0  0.4758792034444312  0.90579201699603  0.4250124578855992  1.0000
  H   H73       1.0  0.39831780900749325  0.7930163647528475  0.2880218885888822  1.0000
  H   H74       1.0  0.4338661503656732  0.8349045665047429  0.29961557907396547  1.0000
  H   H75       1.0  0.450834312418499  0.8138017521525976  0.3765058445578065  1.0000
  H   H76       1.0  0.41306368428145396  0.7741013351955838  0.36447011664592716  1.0000
  H   H77       1.0  0.027661564042357145  0.8811673875899859  0.37293224240699907  1.0000
  H   H78       1.0  0.0729070904838315  0.8550260890110947  0.39093827328585895  1.0000
  H   H79       1.0  0.03282620231926253  0.7623410965906645  0.37667743714542357  1.0000
  H   H80       1.0  0.4893326898055577  0.7867987989357458  0.35777054518157403  1.0000
  H   H81       1.0  0.48203137412710223  0.8255502347468308  0.3064214633371682  1.0000
  H   H82       1.0  0.49709832255548825  0.8500784073900108  0.2750498619923968  1.0000
  H   H83       1.0  0.49940890742630095  0.941830588152238  0.30986450591044107  1.0000
  H   H84       1.0  0.4827073679574536  0.9203678004315586  0.3405198947155936  1.0000
  C   C133      1.0  0.12925056000431795  0.9743900793353121  0.16179800811040715  1.0000
  C   C134      1.0  0.10093652750779478  0.9675901387459447  0.14749203565888117  1.0000
  C   C135      1.0  0.0939204708693221  0.938761404328079  0.13411434180362708  1.0000
  C   C136      1.0  0.11423190031343637  0.9157861050095182  0.13500270647190976  1.0000
  C   C137      1.0  0.1416307149155413  0.9220308726396427  0.15036546544673818  1.0000
  C   C138      1.0  0.14896117249895088  0.9514354780173194  0.1623704186010558  1.0000
  H   H85       1.0  0.08519617839848363  0.9856932927025255  0.14678589485810054  1.0000
  H   H86       1.0  0.0716018504547999  0.9335934108468099  0.12337954682504013  1.0000
  H   H87       1.0  0.15734233311279341  0.9031810969638199  0.15425408920676878  1.0000
  H   H88       1.0  0.1706809823300062  0.9561391045060215  0.17327419497570912  1.0000
  C   C139      1.0  0.15268191050267824  0.8627280552484249  0.11794658977645602  1.0000
  C   C140      1.0  0.12653251078491892  0.8551323666015758  0.11977013404725168  1.0000
  C   C141      1.0  0.12047954747719058  0.822404260994031  0.12148251616346063  1.0000
  C   C142      1.0  0.14058483798898166  0.7988582849924222  0.12403719406845073  1.0000
  C   C143      1.0  0.16756082344046627  0.8083159133814931  0.12599055186205235  1.0000
  C   C144      1.0  0.1734721915489967  0.8398190749118957  0.12190758084517725  1.0000
  C   C145      1.0  0.10339895091873509  0.8812069452415022  0.12170726515050254  1.0000
  C   C146      1.0  0.08123935074330559  0.8833957293731395  0.093803139671371  1.0000
  C   C147      1.0  0.06298450080368198  0.8581295467487075  0.08269569035576353  1.0000
  C   C148      1.0  0.042974378671527494  0.8600337008389177  0.06000294367077147  1.0000
  C   C149      1.0  0.04162337403628624  0.8877404075520401  0.046527703159730725  1.0000
  C   C150      1.0  0.06057974555411183  0.9123544762841314  0.05649536736346009  1.0000
  C   C151      1.0  0.0806441492426058  0.9105075456294526  0.0796566364181196  1.0000
  C   C152      1.0  0.10750882564106305  0.8604742125511268  0.16548818131258491  1.0000
  C   C153      1.0  0.09677654594755346  0.8473169835558159  0.1826233798092883  1.0000
  C   C154      1.0  0.0681478573774522  0.8392550600214825  0.1766256593310254  1.0000
  C   C155      1.0  0.050383587321527964  0.8474865298478951  0.15300370148135053  1.0000
  C   C156      1.0  0.06046261257968712  0.8633153148950221  0.13688761374414674  1.0000
  C   C157      1.0  0.08957332048978858  0.8677183909364856  0.14162580732656396  1.0000
  C   C158      1.0  0.05679724009525861  0.8202402413312895  0.19595313964821892  1.0000
  C   C159      1.0  0.11149547193963533  0.7358608847915266  0.2072857109782327  1.0000
  C   C160      1.0  0.11613459497990901  0.7586038227485803  0.2263865771715624  1.0000
  C   C161      1.0  0.09920492782939824  0.7851079599056187  0.22316921615374247  1.0000
  C   C162      1.0  0.07621754977648229  0.788588816915358  0.20193649857295298  1.0000
  C   C163      1.0  0.07285007549602125  0.7670856272110103  0.1823089177411118  1.0000
  C   C164      1.0  0.08975013087478696  0.7397683494042797  0.18541772779589571  1.0000
  C   C165      1.0  0.023132055383416866  0.8132147629291222  0.18610633631055026  1.0000
  C   C166      1.0  0.0051701500788112155  0.8396860807068283  0.18093748263595064  1.0000
  C   C167      1.0  0.47626851505859624  0.8358473881725648  0.17094799633140478  1.0000
  C   C168      1.0  0.4643301934668983  0.8054683609522968  0.16736879877013147  1.0000
  C   C169      1.0  0.4812720514466731  0.778867075812272  0.17305989075486997  1.0000
  C   C170      1.0  0.010213316771859977  0.7831266565589724  0.18253030948187424  1.0000
  C   C171      1.0  0.053732298540468536  0.8261443809075764  0.24032660977862674  1.0000
  C   C172      1.0  0.050442918473031936  0.8437259794612015  0.26008213899645194  1.0000
  C   C173      1.0  0.05315524149170116  0.8768424395228621  0.2607256112000159  1.0000
  C   C174      1.0  0.06043953366457949  0.8919680672234955  0.2424025070614288  1.0000
  C   C175      1.0  0.06384060370132362  0.8745186746499104  0.22275702091609711  1.0000
  C   C176      1.0  0.06006370513195036  0.8410641962058586  0.22087509786277523  1.0000
  H   H89       1.0  0.15841171842336993  0.8864517869392389  0.11506234219503181  1.0000
  H   H90       1.0  0.09955291450337264  0.8141083673802212  0.1216813397486778  1.0000
  H   H91       1.0  0.13526061081598406  0.7742816785700788  0.12657228803681064  1.0000
  H   H92       1.0  0.19506964560972803  0.8468206040011017  0.12226829830653746  1.0000
  H   H93       1.0  0.06292468354448  0.8357344379761414  0.09232800295891085  1.0000
  H   H94       1.0  0.028080902931924407  0.8408596896982337  0.05285312817760576  1.0000
  H   H95       1.0  0.06057719716894152  0.9327481278349675  0.04517137566282716  1.0000
  H   H96       1.0  0.09437383373396739  0.9304782130920809  0.08643305151953601  1.0000
  H   H97       1.0  0.12998571222351094  0.8644639670585179  0.17103752289885715  1.0000
  H   H98       1.0  0.11183777293973214  0.8413345179973261  0.20043692856812562  1.0000
  H   H99       1.0  0.028064927510152347  0.8405341223661593  0.14543497625798055  1.0000
  H   H100      1.0  0.04467235678060548  0.8716447314167394  0.12023884293060132  1.0000
  H   H101      1.0  0.1339530687339964  0.755634589741189  0.24373048447863915  1.0000
  H   H102      1.0  0.1041086707985631  0.8024291840960307  0.23842976563072943  1.0000
  H   H103      1.0  0.05670637289076014  0.7711659920798077  0.164858324607821  1.0000
  H   H104      1.0  0.08395796911718614  0.722403612532477  0.17023122425073917  1.0000
  H   H105      1.0  0.01363399965061753  0.8640090351887708  0.18140190170460987  1.0000
  H   H106      1.0  0.46312232697870237  0.8567430994056191  0.16707559926172494  1.0000
  H   H107      1.0  0.47261391797590085  0.7547960198525371  0.17025323286523786  1.0000
  H   H108      1.0  0.02250911244102572  0.7607081702543742  0.1868027783998569  1.0000
  H   H109      1.0  0.05105791521210884  0.8000956872567886  0.24013823095961234  1.0000
  H   H110      1.0  0.04482853486457803  0.8313695951227551  0.274203089875243  1.0000
  H   H111      1.0  0.06183503029245399  0.9176232783114872  0.2432735259572676  1.0000
  H   H112      1.0  0.06420851156771813  0.8881661590896154  0.20691827902431353  1.0000
  C   C177      1.0  0.19063769161660404  0.4911342126457461  0.38071359322806836  1.0000
  C   C178      1.0  0.21478212027214164  0.4798988915976634  0.3979940858831997  1.0000
  C   C179      1.0  0.21586740199309767  0.44882299839976225  0.40677515004082065  1.0000
  C   C180      1.0  0.19217291505336132  0.42812657690439965  0.39890240751547695  1.0000
  C   C181      1.0  0.16770624584114133  0.4402702459808602  0.3821758604964573  1.0000
  C   C182      1.0  0.167249130865675  0.4710794915176565  0.3728259296081493  1.0000
  H   H113      1.0  0.2335321490849391  0.4957725993850742  0.40480183528322444  1.0000
  H   H114      1.0  0.23600867736652212  0.44013803859562844  0.4191223558019614  1.0000
  H   H115      1.0  0.14881980363228614  0.4261373144787289  0.37376036315593353  1.0000
  H   H116      1.0  0.14788395753281713  0.4783279071032032  0.3585110044998781  1.0000
  C   C183      1.0  0.1481079427135581  0.38276417311878363  0.41071991441919115  1.0000
  C   C184      1.0  0.16757807005080805  0.3715520995982887  0.40026768766912574  1.0000
  C   C185      1.0  0.16246039264064654  0.3411059601577892  0.38842033857626074  1.0000
  C   C186      1.0  0.13758666088472934  0.32456832659983675  0.38473296307931587  1.0000
  C   C187      1.0  0.11767090396336329  0.3376484717184691  0.3936856198245539  1.0000
  C   C188      1.0  0.12283526999092992  0.3668569469604247  0.4065457382117239  1.0000
  C   C189      1.0  0.19563537775586928  0.3906164199679887  0.40385621091450863  1.0000
  C   C190      1.0  0.21393812203143456  0.3810891577340765  0.4318220724224459  1.0000
  C   C191      1.0  0.22394634488100046  0.34957828024914583  0.43660055296021666  1.0000
  C   C192      1.0  0.24081315138405449  0.34085350800358133  0.4596872165419992  1.0000
  C   C193      1.0  0.246849096230253  0.3624388761973674  0.47916670551017954  1.0000
  C   C194      1.0  0.23568289041077398  0.3931012464615171  0.47579640327296197  1.0000
  C   C195      1.0  0.2187907011549127  0.40234067602015383  0.4523106004112875  1.0000
  C   C196      1.0  0.19522486827590657  0.3829420798344412  0.3587422814657968  1.0000
  C   C197      1.0  0.2075245212537295  0.3754964027286511  0.34142821634787085  1.0000
  C   C198      1.0  0.2347887844909598  0.3653260092924384  0.34811100158082664  1.0000
  C   C199      1.0  0.2506040404202857  0.3654893394091384  0.3732213386143973  1.0000
  C   C200      1.0  0.23861190509300995  0.37422358455035526  0.39065663762574837  1.0000
  C   C201      1.0  0.21028794531679254  0.38123081898557154  0.38395706616139524  1.0000
  C   C202      1.0  0.2461159610138968  0.35063441146135726  0.32725877191170977  1.0000
  C   C203      1.0  0.18821786504974197  0.26672380978507415  0.3024860246429074  1.0000
  C   C204      1.0  0.1869542111531955  0.2915844704521443  0.28650366721583564  1.0000
  C   C205      1.0  0.20526581267969227  0.3184110963980503  0.2937777008213415  1.0000
  C   C206      1.0  0.22542623031540757  0.32020021605204363  0.3171777073892074  1.0000
  C   C207      1.0  0.22623034740400977  0.294850531528012  0.33317498591085454  1.0000
  C   C208      1.0  0.20736120280908746  0.26902274279549115  0.32577039272781394  1.0000
  C   C209      1.0  0.27998686625812874  0.3425336063367213  0.33755432716873346  1.0000
  C   C210      1.0  0.30035105193512085  0.3666937728160194  0.34700497544542536  1.0000
  C   C211      1.0  0.32820574318261925  0.35917358418711454  0.35847556690026156  1.0000
  C   C212      1.0  0.3374194674720363  0.32752427844869203  0.3596319517298548  1.0000
  C   C213      1.0  0.31742124996574467  0.3043839008968082  0.3471206139283847  1.0000
  C   C214      1.0  0.2896086993617072  0.3116213847759394  0.3364538964437979  1.0000
  C   C215      1.0  0.2529379522290672  0.3638245578584777  0.2856494345513942  1.0000
  C   C216      1.0  0.2525163328646991  0.38351216912024844  0.26650753534798216  1.0000
  C   C217      1.0  0.24282889628017848  0.414776405061584  0.26550036146414285  1.0000
  C   C218      1.0  0.2334963285317305  0.426063372192203  0.2843065360396085  1.0000
  C   C219      1.0  0.2356254472049171  0.40708271291475645  0.3044201715272432  1.0000
  C   C220      1.0  0.24434102932934396  0.3746973797853401  0.3051718216664787  1.0000
  H   H117      1.0  0.1518805088819945  0.40531882337615693  0.42119825308476344  1.0000
  H   H118      1.0  0.17804178927168085  0.3296020980148869  0.3822616567902658  1.0000
  H   H119      1.0  0.1335169849588103  0.3017521387509645  0.37447284542190873  1.0000
  H   H120      1.0  0.10834903932023934  0.37797977290150986  0.4143886385479168  1.0000
  H   H121      1.0  0.22113585418907555  0.3320181000275517  0.4220767325278899  1.0000
  H   H122      1.0  0.25003872972230334  0.3173426884197546  0.4619943907907199  1.0000
  H   H123      1.0  0.2402501137295945  0.40982222388342543  0.4910793343918119  1.0000
  H   H124      1.0  0.20931430623679625  0.42616532664249923  0.44961361256678456  1.0000
  H   H125      1.0  0.17221797709142161  0.3873088659179728  0.3533501709136128  1.0000
  H   H126      1.0  0.19346442981472592  0.37396810326556335  0.3224653702793636  1.0000
  H   H127      1.0  0.2727131322172228  0.3588403292319756  0.38012047971869634  1.0000
  H   H128      1.0  0.25216831921549787  0.3751198165157132  0.4099160404489416  1.0000
  H   H129      1.0  0.17335146529045442  0.2894906134849701  0.26716033323565574  1.0000
  H   H130      1.0  0.20300377210959705  0.3376915076077717  0.2809399640760346  1.0000
  H   H131      1.0  0.2410087095006321  0.2956654431208711  0.35168646886845606  1.0000
  H   H132      1.0  0.2089561542758764  0.24984556153133752  0.33902592012123195  1.0000
  H   H133      1.0  0.29317047904803173  0.3914558774987072  0.3472716900109606  1.0000
  H   H134      1.0  0.3428366041449317  0.3782831744925332  0.36728460811021135  1.0000
  H   H135      1.0  0.323493038353468  0.27976360954262414  0.3447649461222939  1.0000
  H   H136      1.0  0.27504023890725965  0.29170996027644935  0.3280794321133566  1.0000
  H   H137      1.0  0.2609899039017412  0.3396262926212917  0.28613810039873844  1.0000
  H   H138      1.0  0.2601003938044691  0.3728364056298996  0.2526756806765894  1.0000
  H   H139      1.0  0.2255761716381865  0.4499546316023666  0.2843363782287593  1.0000
  H   H140      1.0  0.23136747820266984  0.4184489805168218  0.31980568517129915  1.0000
  C   C221      1.0  0.38866637868639836  0.4974459072696288  0.11978990449756406  1.0000
  C   C222      1.0  0.36368471410157277  0.48665754820114415  0.10209926825529157  1.0000
  C   C223      1.0  0.3579193397458081  0.45432970716346543  0.09843837770121798  1.0000
  C   C224      1.0  0.3774482660686314  0.43145498194107057  0.11062797940090612  1.0000
  C   C225      1.0  0.4023366096946849  0.4427503616542204  0.12826303456588528  1.0000
  C   C226      1.0  0.4083836852868442  0.4747755986397008  0.1325711275971667  1.0000
  H   H141      1.0  0.34854508531205014  0.5041458608032521  0.09121097251626023  1.0000
  H   H142      1.0  0.33708968633814956  0.4467711548928155  0.08604323792375378  1.0000
  H   H143      1.0  0.41826387609252985  0.4261407491672611  0.13855504606294733  1.0000
  H   H144      1.0  0.42816112854218613  0.48267333034059434  0.14623866371454786  1.0000
  C   C227      1.0  0.42149462291876866  0.37513242393684554  0.11043102095251088  1.0000
  C   C228      1.0  0.39572631763810684  0.3686501196234231  0.11412678956515444  1.0000
  C   C229      1.0  0.39249544138017695  0.3382703879551396  0.12328069457347814  1.0000
  C   C230      1.0  0.4131097867670136  0.316156081047724  0.12815653525335338  1.0000
  C   C231      1.0  0.4392335455866472  0.32299087437352497  0.12633485611937964  1.0000
  C   C232      1.0  0.44299630136755613  0.3532452551658422  0.11762559972940279  1.0000
  C   C233      1.0  0.3694847353170985  0.393799611813229  0.10644727521456215  1.0000
  C   C234      1.0  0.352948780112325  0.3808436426436049  0.07831019414637223  1.0000
  C   C235      1.0  0.3384641492486385  0.35153718773869913  0.07448890182561314  1.0000
  C   C236      1.0  0.32215713800249696  0.3412061486241124  0.05167604032928916  1.0000
  C   C237      1.0  0.31948186850529076  0.3595197460209784  0.031119248332765134  1.0000
  C   C238      1.0  0.3358725231510103  0.38772724548345266  0.03398615014174542  1.0000
  C   C239      1.0  0.3529328895590151  0.3979652294423957  0.0572667879530081  1.0000
  C   C240      1.0  0.3650765734360966  0.39095221741382397  0.15016832048466078  1.0000
  C   C241      1.0  0.3502292173442696  0.3826336943257633  0.16564765051085947  1.0000
  C   C242      1.0  0.32197817395724015  0.37324384560026075  0.15625239679777878  1.0000
  C   C243      1.0  0.30817355918548306  0.3800051381878655  0.13145073990823658  1.0000
  C   C244      1.0  0.32300589537704755  0.3895099743550911  0.116220592161447  1.0000
  C   C245      1.0  0.3519877301547532  0.39221598164041266  0.12469465479817915  1.0000
  C   C246      1.0  0.3078971580780575  0.352013812948809  0.1729526453876093  1.0000
  C   C247      1.0  0.3774759181405634  0.3013985938348514  0.2278134068403347  1.0000
  C   C248      1.0  0.35550185222092884  0.3144576049637525  0.2343768233166873  1.0000
  C   C249      1.0  0.3334057447132162  0.3303108553105806  0.21777151019109273  1.0000
  C   C250      1.0  0.33176380666729827  0.3316743540908345  0.19266303829434397  1.0000
  C   C251      1.0  0.35218745311006067  0.314380342174838  0.1854251883431834  1.0000
  C   C252      1.0  0.3754313835525955  0.3005211190719505  0.20307982744479275  1.0000
  C   C253      1.0  0.2836489193574418  0.32661681905160284  0.15596591178193117  1.0000
  C   C254      1.0  0.257602287238306  0.33864710351776506  0.13989216265058507  1.0000
  C   C255      1.0  0.2345128175243464  0.3180054391831945  0.12894399601956993  1.0000
  C   C256      1.0  0.23621381522026805  0.2855159312728939  0.1335227204037126  1.0000
  C   C257      1.0  0.2614149445555135  0.273356043065746  0.14764945320665163  1.0000
  C   C258      1.0  0.28432351692837365  0.29329389443918247  0.15899302884391472  1.0000
  C   C259      1.0  0.26940717045702595  0.36981893999960214  0.19378771579796447  1.0000
  C   C260      1.0  0.25986724962655966  0.3903371164250002  0.20835256924037354  1.0000
  C   C261      1.0  0.27425854895739926  0.41802805114927605  0.21900250049356293  1.0000
  C   C262      1.0  0.29859255382705024  0.4254458215189073  0.21410278606236707  1.0000
  C   C263      1.0  0.3074572761682914  0.4060924749583605  0.19816705705584342  1.0000
  C   C264      1.0  0.29343069626251433  0.3774669244570841  0.1876831229798053  1.0000
  H   H145      1.0  0.4241545488719668  0.3977594898309316  0.10226638451453601  1.0000
  H   H146      1.0  0.37247072168527867  0.33110460031487354  0.12534465498061986  1.0000
  H   H147      1.0  0.4096962577209967  0.2937386553659075  0.13571929203889319  1.0000
  H   H148      1.0  0.46281428160365745  0.35904486319087286  0.11565116588971341  1.0000
  H   H149      1.0  0.33884108513874767  0.33731443655593796  0.09030097226084322  1.0000
  H   H150      1.0  0.30882157176383185  0.3202510416748926  0.04849784718472966  1.0000
  H   H151      1.0  0.33550746733822384  0.40185916508934943  0.017998327863785406  1.0000
  H   H152      1.0  0.3645980618295287  0.4209965672761711  0.0600715807058183  1.0000
  H   H153      1.0  0.38786240427098645  0.3950345387845441  0.15799891091782897  1.0000
  H   H154      1.0  0.362707645490655  0.37998948599148813  0.18519633605513328  1.0000
  H   H155      1.0  0.28634681693103164  0.37582236193910484  0.12266706455906493  1.0000
  H   H156      1.0  0.31129826614305856  0.3916778160758652  0.09649005577703557  1.0000
  H   H157      1.0  0.35607738856857074  0.3141789761190405  0.2532258960390572  1.0000
  H   H158      1.0  0.3186276776848339  0.34102992642259805  0.22585501317731388  1.0000
  H   H159      1.0  0.3505588406216881  0.31308016235737157  0.16562135208167034  1.0000
  H   H160      1.0  0.39150852482049836  0.2899525106444293  0.19677379984986573  1.0000
  H   H161      1.0  0.25479756213163934  0.36420500002253015  0.13820141612151043  1.0000
  H   H162      1.0  0.21422039431354958  0.3269841101820482  0.11816947362667599  1.0000
  H   H163      1.0  0.2632517002420424  0.24718139479708506  0.14997117552258335  1.0000
  H   H164      1.0  0.3030209496783889  0.2815474249116678  0.169973275828267  1.0000
  H   H165      1.0  0.2587535622108805  0.3466960379577436  0.18759732668599677  1.0000
  H   H166      1.0  0.24019503111166354  0.38475182069188363  0.21071196732010816  1.0000
  H   H167      1.0  0.3111745261939716  0.4470924919274572  0.22262086592809666  1.0000
  H   H168      1.0  0.3267279496314803  0.4129388537911427  0.19611727168854828  1.0000
  C   C265      1.0  0.061695660291689366  0.26788252467131435  0.38241832828330746  1.0000
  C   C266      1.0  0.035822396938746066  0.28091863269202316  0.3696067034535075  1.0000
  C   C267      1.0  0.014272819392908408  0.2616053442867196  0.35441702917575363  1.0000
  C   C268      1.0  0.01780616851138702  0.22787688364197764  0.3531617920945984  1.0000
  C   C269      1.0  0.043735246830550786  0.2151977320234721  0.36691531101947034  1.0000
  C   C270      1.0  0.06538876043283373  0.23535730842608402  0.38070986295442455  1.0000
  H   H169      1.0  0.0319901899382792  0.3057146133610544  0.37100555606995095  1.0000
  H   H170      1.0  0.49471995044963707  0.272349531550416  0.34282893410113624  1.0000
  H   H171      1.0  0.048246613215970714  0.18973555736349879  0.3663669607938245  1.0000
  H   H172      1.0  0.08540938201611696  0.22473922538720964  0.3906920752253649  1.0000
  C   C271      1.0  0.02054219928087631  0.1692093024010732  0.31663495257402735  1.0000
  C   C272      1.0  0.49928134710237754  0.17251585967925237  0.3272848838272167  1.0000
  C   C273      1.0  0.4800979790188586  0.1471310485643221  0.32349306066824407  1.0000
  C   C274      1.0  0.4813272728706636  0.12080379032524201  0.30872677244906704  1.0000
  C   C275      1.0  0.0022021971340527554  0.11818152429343928  0.2982726805621798  1.0000
  C   C276      1.0  0.02213154425771486  0.1423729116140468  0.30245058704329086  1.0000
  C   C277      1.0  0.49235408792851243  0.20556632652710513  0.33792362425947453  1.0000
  C   C278      1.0  0.4732718337965537  0.221247814401557  0.3121940618010249  1.0000
  C   C279      1.0  0.4448065522893034  0.21297880932676602  0.3013464260447115  1.0000
  C   C280      1.0  0.42775970481440106  0.2245498609914414  0.278655171469177  1.0000
  C   C281      1.0  0.4395568339706313  0.2447345359655592  0.2661102612049122  1.0000
  C   C282      1.0  0.46804697972034814  0.2515956971217285  0.27515617479124643  1.0000
  C   C283      1.0  0.48507029390510453  0.23992756647706706  0.2977299257469997  1.0000
  C   C284      1.0  0.49071818349889923  0.17950550999272924  0.3793333919798442  1.0000
  C   C285      1.0  0.48071981694417193  0.17945880214341084  0.3992381321434234  1.0000
  C   C286      1.0  0.45877449933136644  0.19910400285427346  0.3998927951679189  1.0000
  C   C287      1.0  0.44567097360343827  0.21683572887707797  0.3789249270158427  1.0000
  C   C288      1.0  0.4569097508550607  0.21997632641460202  0.36054027336213207  1.0000
  C   C289      1.0  0.47906505761630425  0.20109227364803192  0.35964314255078633  1.0000
  C   C290      1.0  0.44500933404068505  0.19689709772816888  0.42134373375687356  1.0000
  C   C291      1.0  0.40737906021905157  0.09958236509657231  0.3977441575490618  1.0000
  C   C292      1.0  0.4320419096881248  0.10351226791913955  0.41701102091954273  1.0000
  C   C293      1.0  0.4429557881495683  0.13392176563387606  0.4254488999019297  1.0000
  C   C294      1.0  0.4297727896365366  0.16166152411943485  0.41481762001695943  1.0000
  C   C295      1.0  0.40537301610502097  0.15709565107282564  0.3946349744669135  1.0000
  C   C296      1.0  0.3929954376909104  0.12678820198832  0.38709049602222856  1.0000
  C   C297      1.0  0.4256848628925332  0.22742411023740894  0.421455641966189  1.0000
  C   C298      1.0  0.43674403187946187  0.258202829453382  0.4216570767429569  1.0000
  C   C299      1.0  0.41942584454847803  0.2842131283194856  0.4154088683895096  1.0000
  C   C300      1.0  0.39079425841010357  0.280653507759548  0.4116655387879069  1.0000
  C   C301      1.0  0.38020838125595474  0.25085256949537144  0.41525965744375554  1.0000
  C   C302      1.0  0.39795089359975444  0.2246273298035422  0.42077859729983036  1.0000
  C   C303      1.0  0.45584264116083195  0.18912655764236866  0.46775206816000114  1.0000
  C   C304      1.0  0.4725978181395892  0.19052185484063397  0.4922711568210217  1.0000
  C   C305      1.0  0.49956886202231593  0.20170141165306876  0.49857718441594884  1.0000
  C   C306      1.0  0.009596630312711078  0.21280074640711463  0.480714769072377  1.0000
  C   C307      1.0  0.4933493236905932  0.21180211154855766  0.455882337425273  1.0000
  C   C308      1.0  0.46625162527671393  0.19879490881475495  0.44911189076168684  1.0000
  H   H173      1.0  0.035437963325468363  0.18895288837168148  0.3179200318443334  1.0000
  H   H174      1.0  0.46281108216139943  0.1484791557248875  0.3309666639136959  1.0000
  H   H175      1.0  0.4653586956586313  0.10171953507475734  0.305242696865712  1.0000
  H   H176      1.0  0.03846009151975611  0.14218927094955247  0.29424025475317883  1.0000
  H   H177      1.0  0.4355788688528357  0.1952612579853848  0.31030094792677143  1.0000
  H   H178      1.0  0.4052377687542976  0.2190564576766138  0.2716702340710694  1.0000
  H   H179      1.0  0.4772837108572951  0.26764215880939457  0.26471700399893455  1.0000
  H   H180      1.0  0.006979839550157947  0.2465226304185292  0.3039203148589674  1.0000
  H   H181      1.0  0.007382521728241212  0.163244950564668  0.37924759568603567  1.0000
  H   H182      1.0  0.48911539980876617  0.16154542028568228  0.4139950946784907  1.0000
  H   H183      1.0  0.42546221006019636  0.22773888207966275  0.37613654746706543  1.0000
  H   H184      1.0  0.44602961250372486  0.2353152010162538  0.3444273563575256  1.0000
  H   H185      1.0  0.44368226138917716  0.08201362642540982  0.42414330412658235  1.0000
  H   H186      1.0  0.4636578314295607  0.13492257814414652  0.44002867443891414  1.0000
  H   H187      1.0  0.395053093929312  0.17719011398364423  0.38367543050128466  1.0000
  H   H188      1.0  0.373498026190669  0.12523719425756344  0.37141029076030857  1.0000
  H   H189      1.0  0.4590058837303088  0.2605155079996607  0.4234494732288264  1.0000
  H   H190      1.0  0.4290286945202105  0.30703931865808454  0.4122866293496078  1.0000
  H   H191      1.0  0.35807830365267623  0.24649203315387797  0.4119565001321271  1.0000
  H   H192      1.0  0.38930298003486313  0.20133673280887163  0.422694092815947  1.0000
  H   H193      1.0  0.43320376464176796  0.18102952056035024  0.46244948417526954  1.0000
  H   H194      1.0  0.4641813549903883  0.18207224033999342  0.006255952711812341  1.0000
  H   H195      1.0  0.03091914741606425  0.22178205885848362  0.48617215941332825  1.0000
  H   H196      1.0  0.0018747611831371775  0.2210753964009517  0.4426753035892251  1.0000
  C   C309      1.0  0.4938224174815115  0.263606786666288  0.17365953224311872  1.0000
  C   C310      1.0  0.02103496397796638  0.2720957065938634  0.18767752756933953  1.0000
  C   C311      1.0  0.04018231140638976  0.24891926055358524  0.2002000561917412  1.0000
  C   C312      1.0  0.03106626734742079  0.21711788182977731  0.2005096689041807  1.0000
  C   C313      1.0  0.0035174596733931088  0.2085880438053132  0.18522449962114432  1.0000
  C   C314      1.0  0.4855301484694934  0.23151756417667715  0.17241212873661557  1.0000
  H   H197      1.0  0.02922315637639162  0.29715291244776654  0.18948671028660638  1.0000
  H   H198      1.0  0.0622142693029894  0.2555249141298699  0.20916576889473268  1.0000
  H   H199      1.0  0.49509751667238444  0.18370923248957666  0.18257302111509632  1.0000
  H   H200      1.0  0.46426284276928786  0.2246781304690249  0.16145071963416474  1.0000
  C   C315      1.0  0.015006105124888319  0.16186891965747904  0.23136835762292296  1.0000
  C   C316      1.0  0.037661713090346716  0.1583861102221025  0.22275702091609711  1.0000
  C   C317      1.0  0.04987508110633543  0.12791855801609783  0.22357581598092202  1.0000
  C   C318      1.0  0.041812285874730355  0.10347257287576014  0.2358390905850762  1.0000
  C   C319      1.0  0.021123399910363595  0.1088780661031149  0.24624095864094958  1.0000
  C   C320      1.0  0.005681666714527107  0.13665667985567012  0.24217309523233208  1.0000
  C   C321      1.0  0.052105192927322186  0.18972165825738868  0.21548112217376938  1.0000
  C   C322      1.0  0.07378750304007141  0.19966288686037428  0.24256290882811432  1.0000
  C   C323      1.0  0.09823205052743032  0.18233124739651388  0.2526327825296852  1.0000
  C   C324      1.0  0.11935618084766075  0.1932752189181779  0.27364727910230946  1.0000
  C   C325      1.0  0.11720431362291336  0.22320843200702062  0.284293480081855  1.0000
  C   C326      1.0  0.09185415721075274  0.23916293645108536  0.2756578965963442  1.0000
  C   C327      1.0  0.07012875110485958  0.2269955084562714  0.2555330702877779  1.0000
  C   C328      1.0  0.053960785142169475  0.1606827002205696  0.17513317684612134  1.0000
  C   C329      1.0  0.06779571062818693  0.15236342384607549  0.15892588391832546  1.0000
  C   C330      1.0  0.09343064361282326  0.16693785595976507  0.16066549703213454  1.0000
  C   C331      1.0  0.1058735860538155  0.18751985725042325  0.18073119850344582  1.0000
  C   C332      1.0  0.09229524612372939  0.19598634759710362  0.19722516296077147  1.0000
  C   C333      1.0  0.06658213806787125  0.18187186097966626  0.19513061430975018  1.0000
  C   C334      1.0  0.10689885686728286  0.16133544321247847  0.13885924987860324  1.0000
  C   C335      1.0  0.14193746310161734  0.06394852882928546  0.15849578336718964  1.0000
  C   C336      1.0  0.11642201889516933  0.06754718538839011  0.13987817412442063  1.0000
  C   C337      1.0  0.105485947268895  0.09811030009511064  0.1331099656250207  1.0000
  C   C338      1.0  0.11931704733868256  0.12597943025211356  0.14588055744473832  1.0000
  C   C339      1.0  0.14370174875630062  0.12131490844515158  0.16640303092373895  1.0000
  C   C340      1.0  0.1552343550065793  0.09120393185240644  0.17206372117828006  1.0000
  C   C341      1.0  0.12978050425516877  0.18894295402875336  0.13770323807637436  1.0000
  C   C342      1.0  0.12444950658504615  0.22188462470618717  0.1393723490183147  1.0000
  C   C343      1.0  0.1457410458263252  0.24428288020801447  0.14115448725166363  1.0000
  C   C344      1.0  0.1712050321043284  0.23475330002773642  0.13908138767409445  1.0000
  C   C345      1.0  0.1753074780573694  0.20282340329424106  0.13511629330436495  1.0000
  C   C346      1.0  0.15442030417673894  0.18033905976154738  0.13346713932641927  1.0000
  C   C347      1.0  0.08866025443161488  0.150079576445958  0.0906723210020884  1.0000
  C   C348      1.0  0.06851575127529937  0.15128648833858  0.06732714945678712  1.0000
  C   C349      1.0  0.04389461485315602  0.16778996006865388  0.06379476682974415  1.0000
  C   C350      1.0  0.03983749594601744  0.1833870714382461  0.08367973654301093  1.0000
  C   C351      1.0  0.06004150640934564  0.18214819974512209  0.10679904001917713  1.0000
  C   C352      1.0  0.08428429682250678  0.16426207161989836  0.11129252765055785  1.0000
  H   H201      1.0  0.0053723925768981275  0.1848029656173587  0.2307192900088932  1.0000
  H   H202      1.0  0.06786912056608127  0.12415096532027736  0.21706089306193946  1.0000
  H   H203      1.0  0.05305229395192908  0.08085674639066052  0.23864985177571651  1.0000
  H   H204      1.0  0.48871098969523874  0.14026233376100725  0.2497138434033732  1.0000
  H   H205      1.0  0.10132807099442198  0.159501728751868  0.24342833231348734  1.0000
  H   H206      1.0  0.1390358808383618  0.18022218867939066  0.2793676537351522  1.0000
  H   H207      1.0  0.08748278680626938  0.26191297373578476  0.28433824336558117  1.0000
  H   H208      1.0  0.05148966989275741  0.2408765838422102  0.2480967697787646  1.0000
  H   H209      1.0  0.03367265989492215  0.14928650461521698  0.1722852994327247  1.0000
  H   H210      1.0  0.05824433302847027  0.13510554358086066  0.14395144642982172  1.0000
  H   H211      1.0  0.12677873350292654  0.19825847959810147  0.18365424093076602  1.0000
  H   H212      1.0  0.10331386897639513  0.21327287195008024  0.21186089160241375  1.0000
  H   H213      1.0  0.10580716309036907  0.0471878692872739  0.12818656395618636  1.0000
  H   H214      1.0  0.08600453904346221  0.1004004801714357  0.11766476760266319  1.0000
  H   H215      1.0  0.15473065269179442  0.1420873062158636  0.17752446876551084  1.0000
  H   H216      1.0  0.1747077980544423  0.08947634086235767  0.1882277429318073  1.0000
  H   H217      1.0  0.10535391711480338  0.23150810179352863  0.1415903697269474  1.0000
  H   H218      1.0  0.14175555774585505  0.2695946945506174  0.14367652526227004  1.0000
  H   H219      1.0  0.19630927054856467  0.19537005097687726  0.13547551865626764  1.0000
  H   H220      1.0  0.15807903969866802  0.15522565044257564  0.12990845827018713  1.0000
  H   H221      1.0  0.1082621927556297  0.13692111985417937  0.09324658284370872  1.0000
  H   H222      1.0  0.07276087788232664  0.14042085036794216  0.05118905310508465  1.0000
  H   H223      1.0  0.021251018845758012  0.1969833783321659  0.08163498704513501  1.0000
  H   H224      1.0  0.054933524765643886  0.19406213786118026  0.12212001992919445  1.0000
  C   C353      1.0  0.019074035990147124  0.20219471168270703  0.025907683024943458  1.0000
  C   C354      1.0  0.021418773368149617  0.16860195873586387  0.03844755741978902  1.0000
  H   H225      1.0  0.040378834672164354  0.21151641895878112  0.028655589104684954  1.0000
  H   H226      1.0  0.010840163483184683  0.22003646301429394  0.036058876691950216  1.0000
  H   H227      1.0  0.0007317168370176121  0.1622384659907331  0.04022503281108316  1.0000
  H   H228      1.0  0.0250421991497586  0.1496145194398791  0.02625198728227074  1.0000
  C   C355      1.0  0.020371624234325758  0.08411771865867254  0.2655246082428279  1.0000
  C   C356      1.0  0.49981667998888135  0.08823126650305786  0.28102762550666505  1.0000
  H   H229      1.0  0.01644297767241534  0.05957719685718028  0.2569916072825229  1.0000
  H   H230      1.0  0.0412984660961202  0.08292991785448617  0.2793601931878645  1.0000
  H   H231      1.0  0.47787531132180694  0.08650074722482916  0.2679567466586176  1.0000
  H   H232      1.0  0.002718412521901032  0.06657707785630974  0.29304283691350325  1.0000
  C   C357      1.0  0.2104387568323696  0.26219482761319657  0.12458423869832122  1.0000
  C   C358      1.0  0.19646597066348997  0.2590102413858862  0.14512629611395203  1.0000
  H   H233      1.0  0.19493106377942576  0.2705352378175487  0.10783176627747677  1.0000
  H   H234      1.0  0.21775159939714148  0.2379488846790826  0.12013626040539549  1.0000
  H   H235      1.0  0.21202260539542925  0.25214832695364225  0.16266399113682672  1.0000
  H   H236      1.0  0.18971670992856543  0.28282639978385227  0.15011665619469342  1.0000
  C   C359      1.0  0.4714889063650741  0.29039669449574246  0.1632802323427906  1.0000
  C   C360      1.0  0.4629178635143411  0.2974685035722598  0.13515769934181168  1.0000
  H   H237      1.0  0.4787396707980201  0.3124494339948771  0.17396354954509244  1.0000
  H   H238      1.0  0.4515347954166571  0.2836073880011658  0.1678488849880949  1.0000
  H   H239      1.0  0.457986409910452  0.2745770431899137  0.12496416706894727  1.0000
  H   H240      1.0  0.4821121174496315  0.304544930262555  0.13062280567298426  1.0000
  C   C361      1.0  0.40289071480582583  0.289015370164207  0.24908529229438456  1.0000
  C   C362      1.0  0.4203149002028792  0.2606935592525332  0.2429471270134308  1.0000
  H   H241      1.0  0.4171732032649138  0.31060023673965453  0.2570009329666325  1.0000
  H   H242      1.0  0.3954696930743434  0.28237519234791253  0.26524110744589535  1.0000
  H   H243      1.0  0.4335434426523657  0.27023311585900833  0.23220393891914518  1.0000
  H   H244      1.0  0.40576050865681074  0.24333845995610176  0.23035931860226175  1.0000
  C   C363      1.0  0.08839958088415342  0.32189726960184833  0.38635003670392454  1.0000
  C   C364      1.0  0.08610947394085275  0.28993143745960726  0.3986580745918048  1.0000
  H   H245      1.0  0.08106867296134715  0.31692927470259036  0.36644156626670144  1.0000
  H   H246      1.0  0.0732031478786125  0.3391331638695048  0.3892671106934145  1.0000
  H   H247      1.0  0.08450455123861293  0.29410523373766856  0.41731130794787263  1.0000
  H   H248      1.0  0.10580758020520763  0.2766041554035952  0.4011144597862795  1.0000
  C   C365      1.0  0.3676392987313826  0.31784732633035856  0.37415204188853773  1.0000
  C   C366      1.0  0.369981975992564  0.30814505172191226  0.4006854783172369  1.0000
  H   H249      1.0  0.3720633530828311  0.29633724471815664  0.364029944355953  1.0000
  H   H250      1.0  0.3820867946909938  0.3377818682442301  0.37314113773105456  1.0000
  H   H251      1.0  0.3746506417225222  0.3299239689442279  0.4132826124125155  1.0000
  H   H252      1.0  0.3483382255308905  0.3003338600223551  0.39982191996868577  1.0000
  C   C367      1.0  0.14326853175629362  0.2388248632115272  0.30380094610236424  1.0000
  C   C368      1.0  0.1695996529054312  0.23693808483963014  0.29460022615981024  1.0000
  H   H253      1.0  0.1382784163290872  0.26410908857945925  0.3063170156751405  1.0000
  H   H254      1.0  0.14814001736745008  0.2267267825242383  0.3219878952529509  1.0000
  H   H255      1.0  0.16217117552594773  0.2353834774522216  0.27369204238603567  1.0000
  H   H256      1.0  0.18146220874404004  0.21490344557123123  0.3007495822616956  1.0000
  C   C369      1.0  0.266728520339798  0.35249514374375546  0.005017501862054297  1.0000
  C   C370      1.0  0.29807214258007625  0.35078382052395846  0.005573312634987836  1.0000
  H   H257      1.0  0.2597424018971683  0.32926164143380626  0.009764275073852356  1.0000
  H   H258      1.0  0.2650530417433517  0.3698191721428775  0.019848226517874868  1.0000
  H   H259      1.0  0.3006119457814138  0.36734288696197864  0.4911110417177846  1.0000
  H   H260      1.0  0.3023973067266086  0.32627873463442847  0.499783927939734  1.0000
  C   C371      1.0  0.2378621865964885  0.4352672124189629  0.2419250320350161  1.0000
  C   C372      1.0  0.2659783070530156  0.44189576956602195  0.23683693878480586  1.0000
  H   H261      1.0  0.2207249837239528  0.42561085800969484  0.22530479781484614  1.0000
  H   H262      1.0  0.22832229045240848  0.4579905437748115  0.24592761565486626  1.0000
  H   H263      1.0  0.2842161976877309  0.44460369614768985  0.2545781202349525  1.0000
  H   H264      1.0  0.2636204577320238  0.4662979712897319  0.2287068073780366  1.0000
  C   C373      1.0  0.13888293160156137  0.0073958942935596905  0.17521953268097645  1.0000
  C   C374      1.0  0.15397939109441688  0.03004528493069127  0.16258136557561548  1.0000
  H   H265      1.0  0.12101970129694138  0.020296242119711302  0.17798590361525501  1.0000
  H   H266      1.0  0.15343967473645378  0.002938398864180459  0.19461024113643324  1.0000
  H   H267      1.0  0.15311273494590183  0.018820115107955972  0.14436326864010268  1.0000
  H   H268      1.0  0.17683259014785635  0.03139896610763518  0.17192551453977545  1.0000
  C   C375      1.0  0.38432574923405455  0.044670907416947014  0.4022074299639273  1.0000
  C   C376      1.0  0.39788575894445644  0.06583635836310817  0.3870270813702831  1.0000
  H   H269      1.0  0.36159296413422143  0.04780372183050795  0.3947263661711878  1.0000
  H   H270      1.0  0.39143341581585467  0.05350596191260933  0.4215768758596142  1.0000
  H   H271      1.0  0.3822662452724338  0.0682580663765398  0.36777513909437753  1.0000
  H   H272      1.0  0.41629900336592834  0.05398863673561117  0.3846527621959731  1.0000
  C   C377      1.0  0.4895949432442136  0.8825095042101817  0.017940639181883277  1.0000
  C   C378      1.0  0.020785597486383194  0.8895807388204483  0.01977250196290473  1.0000
  H   H273      1.0  0.4844935434905589  0.8987301491305695  0.031490783587692514  1.0000
  H   H274      1.0  0.48722222491450823  0.8578109994393475  0.024493163259195854  1.0000
  H   H275      1.0  0.027769567813607402  0.8728016045588229  0.0077648484007493135  1.0000
  H   H276      1.0  0.022253194545214003  0.9145991847895469  0.013378910234742247  1.0000
  C   C379      1.0  0.04584683612883893  0.8977155109042291  0.2804233211763615  1.0000
  C   C380      1.0  0.014605157116318407  0.9091692325310657  0.27285832622663536  1.0000
  H   H277      1.0  0.05150613020767561  0.8852368458184964  0.2983379603509471  1.0000
  H   H278      1.0  0.05880551465948919  0.9203133368205528  0.2847243266877196  1.0000
  H   H279      1.0  0.0023398057206690643  0.8995637440416487  0.2536865848340725  1.0000
  H   H280      1.0  0.013467853112138575  0.9355979373072202  0.2709073931109023  1.0000
  C   C381      1.0  0.3790809532596653  0.5500458948772381  0.13925409934380467  1.0000
  C   C382      1.0  0.3956271963009358  0.5339668261547472  0.12374977648419216  1.0000
  H   H281      1.0  0.3910201478792141  0.5482257013085247  0.15958353116173607  1.0000
  H   H282      1.0  0.35953049386010927  0.5361909729090324  0.13733711171823057  1.0000
  H   H283      1.0  0.4188168664979576  0.5388450940978264  0.13288670874743633  1.0000
  H   H284      1.0  0.39086597412704327  0.5436061929445092  0.10522579710988375  1.0000
  C   C383      1.0  0.19220883669596991  0.7685391423762398  0.15891114933743228  1.0000
  C   C384      1.0  0.1914350079144149  0.7838997714290049  0.13420909075418086  1.0000
  H   H285      1.0  0.19113063727848154  0.786114516648527  0.17309980468285918  1.0000
  H   H286      1.0  0.17314349431823703  0.7529044460372113  0.1567531860344655  1.0000
  H   H287      1.0  0.19019289050877572  0.7656974789137058  0.1193338785446035  1.0000
  H   H288      1.0  0.21170125767292272  0.7957853849903401  0.13629543280318568  1.0000
  C   C385      1.0  0.4323042248473875  0.8014727497971283  0.1554130852279127  1.0000
  C   C386      1.0  0.42296049594298213  0.7903275230776448  0.12743043748857813  1.0000
  H   H289      1.0  0.42156507331925047  0.8244854895395956  0.15746156499943248  1.0000
  H   H290      1.0  0.42481939719903483  0.7838264147610815  0.16614508250126678  1.0000
  H   H291      1.0  0.44198458169394933  0.7824024706776169  0.12309623254178978  1.0000
  H   H292      1.0  0.4153134183863689  0.811418131939547  0.11572316017103972  1.0000
  C   C387      1.0  0.35202055134928756  0.765610673442177  0.3001657944364332  1.0000
  C   C388      1.0  0.38088426695037586  0.7534205865143594  0.31787340342378523  1.0000
  H   H293      1.0  0.35427180055583635  0.7909097680120187  0.29494714160868823  1.0000
  H   H294      1.0  0.3370585655124497  0.7681723561092975  0.3108679495206365  1.0000
  H   H295      1.0  0.37927115530784816  0.7423799015510197  0.33475102652538086  1.0000
  H   H296      1.0  0.3892461790027786  0.733561005259154  0.3089599145518076  1.0000
  C   C389      1.0  0.18835135062839534  0.5262637476816773  0.37169752183088495  1.0000
  C   C390      1.0  0.16941208200470978  0.5456456228395058  0.38350756818731147  1.0000
  H   H297      1.0  0.2099908478015032  0.5376575140560854  0.3758418558492014  1.0000
  H   H298      1.0  0.17865763153562403  0.5261730375570443  0.35090684167689157  1.0000
  H   H299      1.0  0.17167858792377128  0.5381200941309939  0.4028285205256282  1.0000
  H   H300      1.0  0.14716803667516432  0.5394887649428983  0.37213209871039343  1.0000
  C   C391      1.0  0.08491351404636593  0.789861874208106  0.39290972290663323  1.0000
  C   C392      1.0  0.09110137542020084  0.7708684174636924  0.371695656694063  1.0000
  H   H301      1.0  0.10174194119555707  0.8084964563424148  0.40030126013192036  1.0000
  H   H302      1.0  0.08499141315235707  0.7739195199113653  0.40846869427512816  1.0000
  H   H303      1.0  0.09351586217087178  0.7884639594795378  0.3582032569242606  1.0000
  H   H304      1.0  0.07332523695827288  0.7544267670082825  0.3620286525460279  1.0000
  C   C393      1.0  0.3135321812322867  0.8066635164930911  0.35762319937264203  1.0000
  C   C394      1.0  0.32474091161548846  0.80826532068534  0.3863164642411298  1.0000
  H   H305      1.0  0.33112054238972016  0.8046990513030642  0.3499985200446143  1.0000
  H   H306      1.0  0.3038832584768173  0.8293066367458743  0.35091989763464504  1.0000
  H   H307      1.0  0.30625929023502035  0.814928688868821  0.3926616597093173  1.0000
  H   H308      1.0  0.33162333849944275  0.7843915608479333  0.3949464523161749  1.0000
  C   C395      1.0  0.16152778439101007  0.7066340467946393  0.21344439276422766  1.0000
  C   C396      1.0  0.12859827165493368  0.7045888182499337  0.20962272741610422  1.0000
  H   H309      1.0  0.16562949046252287  0.6876549644540925  0.20086964031081214  1.0000
  H   H310      1.0  0.16583010409694485  0.7298930910582614  0.20561827865943214  1.0000
  H   H311      1.0  0.1250397077253721  0.6893808811855887  0.22405142587051283  1.0000
  H   H312      1.0  0.11842366923463069  0.6906461633320767  0.1923869980446991  1.0000
  C   C397      1.0  0.25217996989087677  0.7218415453925416  0.0035328529518023895  1.0000
  C   C398      1.0  0.25139184633449635  0.6955467025408578  0.02248963328508446  1.0000
  H   H313      1.0  0.24475579460097013  0.745077963278243  0.009428550445905957  1.0000
  H   H314      1.0  0.27464208016347796  0.7267356899697496  0.00491491933684851  1.0000
  H   H315      1.0  0.25099851835035514  0.6713795174508559  0.01419584016274522  1.0000
  H   H316      1.0  0.23040421631146832  0.6958667068221  0.025185315533812067  1.0000
  C   C399      1.0  0.30258805105455994  0.578042565914533  0.2652653542245804  1.0000
  C   C400      1.0  0.2839511901501506  0.5759065485653102  0.28259620557390364  1.0000
  H   H317      1.0  0.3030721354991819  0.5541095080418849  0.25650294143517866  1.0000
  H   H318      1.0  0.3245067629337176  0.5838007724891152  0.27703063729728067  1.0000
  H   H319      1.0  0.29387521515610365  0.5589818005527497  0.297278562636094  1.0000
  H   H320      1.0  0.2631257575473219  0.5641708125921486  0.27128788102257484  1.0000
  C   C401      1.0  0.29414397752732435  0.7786883415918866  0.8473071276105771  1.0000
  C   C402      1.0  0.2657040822970461  0.7822816587614417  0.834747296251737  1.0000
  C   C403      1.0  0.24949696912852937  0.7549640710807017  0.8250933480614553  1.0000
  C   C404      1.0  0.26119890636671605  0.7244212001560438  0.8270685279558736  1.0000
  C   C405      1.0  0.2891521677744497  0.7211461435084316  0.8420604977305033  1.0000
  C   C406      1.0  0.30570774024561886  0.7481115585956473  0.8508415618881242  1.0000
  H   H321      1.0  0.2553010464644492  0.8052214484254111  0.8332458611100877  1.0000
  H   H322      1.0  0.227544264858029  0.7571205166858416  0.8159411216762713  1.0000
  H   H323      1.0  0.29866758966725876  0.6981392321626914  0.8467718333426848  1.0000
  H   H324      1.0  0.32826192537150584  0.7463091979408253  0.8607808760121602  1.0000
  C   C407      1.0  0.2796637485198156  0.663914621718775  0.8025345182002774  1.0000
  C   C408      1.0  0.2566526598535666  0.6621832916700129  0.8110787099815139  1.0000
  C   C409      1.0  0.24658863046502252  0.6317929769597271  0.8137589115946195  1.0000
  C   C410      1.0  0.2575649733119645  0.6044448025078939  0.8065408320937716  1.0000
  C   C411      1.0  0.2781265358180313  0.606515520861495  0.7960158650076511  1.0000
  C   C412      1.0  0.2906249413982521  0.6363033184753604  0.795842407283212  1.0000
  C   C413      1.0  0.24130086609905058  0.6937021127771215  0.8159560427708468  1.0000
  C   C414      1.0  0.2197311023257297  0.6973635730413115  0.7878875987377038  1.0000
  C   C415      1.0  0.19619459394690492  0.6772011897898307  0.77897784013937  1.0000
  C   C416      1.0  0.17818015686924793  0.6784536665193145  0.7548038017904054  1.0000
  C   C417      1.0  0.18267116397495103  0.701145357927855  0.7394593211564318  1.0000
  C   C418      1.0  0.20691894439175054  0.7201087684860099  0.7474663535329541  1.0000
  C   C419      1.0  0.22568396340104885  0.7167597572976661  0.7709950545415327  1.0000
  C   C420      1.0  0.2435234523570086  0.6793504075010577  0.8607323824547903  1.0000
  C   C421      1.0  0.23279797032975005  0.6798650754137259  0.8799600779520108  1.0000
  C   C422      1.0  0.2050259523439185  0.6884334817059689  0.8763920712116691  1.0000
  C   C423      1.0  0.18920105751035937  0.698446497913554  0.8529211894445702  1.0000
  C   C424      1.0  0.20051836955478  0.6996422087090651  0.8343145845090505  1.0000
  C   C425      1.0  0.22793010103449332  0.6899141825006532  0.8373510272551438  1.0000
  C   C426      1.0  0.18968104699184885  0.6859044597052838  0.8974662521625951  1.0000
  C   C427      1.0  0.17515183585735192  0.5820163828798502  0.8848486015622752  1.0000
  C   C428      1.0  0.19914890180764455  0.5936409014191314  0.9028956654512176  1.0000
  C   C429      1.0  0.20313485327464914  0.6262676650585594  0.9063685502136412  1.0000
  C   C430      1.0  0.1829586092849885  0.6487257722434386  0.8931932237035658  1.0000
  C   C431      1.0  0.15955844522544455  0.6355482033522506  0.8741650978462912  1.0000
  C   C432      1.0  0.15520967336253058  0.6028766724803437  0.8709421414180055  1.0000
  C   C433      1.0  0.16282131523677396  0.7086676877132639  0.8927157486771531  1.0000
  C   C434      1.0  0.16548495820520986  0.7411798222023828  0.887452332565682  1.0000
  C   C435      1.0  0.14306337472396352  0.7613848434092375  0.8813123021479062  1.0000
  C   C436      1.0  0.11703520955009933  0.7497977459937941  0.8804431483888894  1.0000
  C   C437      1.0  0.11430079224247816  0.7189424978080384  0.8877395636362584  1.0000
  C   C438      1.0  0.137060860259923  0.6987427135292922  0.894599536867297  1.0000
  C   C439      1.0  0.1960801499184467  0.6862542978744806  0.9441841992781621  1.0000
  C   C440      1.0  0.20930507960443467  0.6952779661796002  0.9691602464605541  1.0000
  C   C441      1.0  0.23333956382448445  0.7143536094131007  0.9761265324904426  1.0000
  C   C442      1.0  0.24373242739772347  0.7255793562812626  0.9580701429173907  1.0000
  C   C443      1.0  0.22982871530159396  0.717301215544788  0.9332806094171909  1.0000
  C   C444      1.0  0.2067325133206697  0.6964512302587708  0.9259487565702053  1.0000
  H   H325      1.0  0.28786519960791146  0.6868746686562919  0.7987911885986747  1.0000
  H   H326      1.0  0.2287765969372697  0.6285759960205652  0.8203167326605064  1.0000
  H   H327      1.0  0.24779996958106884  0.5816337014127881  0.8071992253919108  1.0000
  H   H328      1.0  0.30791051652772666  0.6398690727052888  0.7882867380175956  1.0000
  H   H329      1.0  0.19141328761850376  0.6591481096352392  0.7906424058236864  1.0000
  H   H330      1.0  0.16093620772122985  0.661862887590064  0.7490666409261654  1.0000
  H   H331      1.0  0.21267896310766354  0.7360012188746856  0.7349829927838128  1.0000
  H   H332      1.0  0.24534972210415112  0.7304801577562348  0.7758518708258243  1.0000
  H   H333      1.0  0.26452196467827827  0.6699699570839635  0.8641530433862  1.0000
  H   H334      1.0  0.24501497363526262  0.6701278239084226  0.8975352622250062  1.0000
  H   H335      1.0  0.1669616655629906  0.7054711597333324  0.8478648035203326  1.0000
  H   H336      1.0  0.187146144599711  0.7086702218603068  0.8166927718155069  1.0000
  H   H337      1.0  0.21395366022313456  0.5769172753167569  0.9153100161379476  1.0000
  H   H338      1.0  0.2219840212317299  0.6343939877538457  0.9216179088696965  1.0000
  H   H339      1.0  0.1449325482389204  0.6521174290523392  0.8615586380669029  1.0000
  H   H340      1.0  0.13624746745200006  0.592779154905287  0.8572240600927502  1.0000
  H   H341      1.0  0.18545166167515367  0.7501588362437893  0.8864656751868838  1.0000
  H   H342      1.0  0.14433112025496192  0.7858037715144649  0.8748757149754445  1.0000
  H   H343      1.0  0.0940102427397582  0.7104577871995029  0.8873777270928049  1.0000
  H   H344      1.0  0.13402548058204256  0.6748520176995118  0.8997585053167403  1.0000
  H   H345      1.0  0.17680245186753268  0.6718726137987098  0.9389114574825813  1.0000
  H   H346      1.0  0.2010729693402625  0.6860172666491996  0.9832382991924409  1.0000
  H   H347      1.0  0.2615548661305328  0.7411059187924008  0.9629474757067233  1.0000
  H   H348      1.0  0.23712270686117812  0.7268723078090165  0.9193499024942362  1.0000
  C   C445      1.0  0.21811969502595202  0.7472952819471304  0.6698930749449242  1.0000
  C   C446      1.0  0.24367023234718532  0.762324466532307  0.6797842685389546  1.0000
  C   C447      1.0  0.2674465833620525  0.7452329723647306  0.6906542859371312  1.0000
  C   C448      1.0  0.2664007257596746  0.7113354162105756  0.6915476864748331  1.0000
  C   C449      1.0  0.24040352627276654  0.6960701590721522  0.6799976401913828  1.0000
  C   C450      1.0  0.2163481134138883  0.7141318792831141  0.6694359299098706  1.0000
  H   H349      1.0  0.2455843917394605  0.7891030670115061  0.6805527049095876  1.0000
  H   H350      1.0  0.28648592491659486  0.7590332037065853  0.7002541451595771  1.0000
  H   H351      1.0  0.23920662428878067  0.6694753914642225  0.6782270658063299  1.0000
  H   H352      1.0  0.19607447359796698  0.7023657231320118  0.6606391986029454  1.0000
  C   C451      1.0  0.27032309976012053  0.6494431610215103  0.7246333485589532  1.0000
  C   C452      1.0  0.2926674363240573  0.6580332025306584  0.7163838483955808  1.0000
  C   C453      1.0  0.31550295243008236  0.637576518652074  0.7217554424427236  1.0000
  C   C454      1.0  0.31722434528023197  0.6111431540267667  0.7356861493656784  1.0000
  C   C455      1.0  0.2956257661362842  0.6028594884271712  0.744178117315901  1.0000
  C   C456      1.0  0.2714594363434413  0.6213725600533014  0.7372472688856292  1.0000
  C   C457      1.0  0.2948586717841689  0.6929578160904493  0.7060528555389405  1.0000
  C   C458      1.0  0.3105931880104448  0.7109226347933042  0.7318402372388699  1.0000
  C   C459      1.0  0.3395493656889614  0.7141585278931897  0.7410689342337529  1.0000
  C   C460      1.0  0.3532230872554268  0.7324142391880247  0.7622531582571722  1.0000
  C   C461      1.0  0.3379993300174367  0.7457832041590703  0.7758947689727286  1.0000
  C   C462      1.0  0.30916561089746897  0.7389552872488404  0.768564781262565  1.0000
  C   C463      1.0  0.2958573655877928  0.7218154413181935  0.7474122645651182  1.0000
  C   C464      1.0  0.29904635524780326  0.6685681200756417  0.6651634609918878  1.0000
  C   C465      1.0  0.3090770187882181  0.6676571863641322  0.6451199546487575  1.0000
  C   C466      1.0  0.3297305057324475  0.6889358253832067  0.6436573143530042  1.0000
  C   C467      1.0  0.3390216427109477  0.7125934643225534  0.66278932833126  1.0000
  C   C468      1.0  0.32776389286352675  0.7143811303823053  0.6818956034213733  1.0000
  C   C469      1.0  0.30866047216202985  0.6915959986666746  0.684446924080084  1.0000
  C   C470      1.0  0.34026701705416623  0.6853909701517299  0.6202231757812973  1.0000
  C   C471      1.0  0.3711893510846975  0.5850380808781601  0.6329534806456613  1.0000
  C   C472      1.0  0.34681559525658834  0.5914655561912364  0.6141924423812862  1.0000
  C   C473      1.0  0.33775742380540563  0.622761090294777  0.6098490982640703  1.0000
  C   C474      1.0  0.3528340547258538  0.6493230972342585  0.6240532342451193  1.0000
  C   C475      1.0  0.37723874682559316  0.6413889464100165  0.6441101695733675  1.0000
  C   C476      1.0  0.38691546084340295  0.6101829269041085  0.6478822222820277  1.0000
  C   C477      1.0  0.3625067262804773  0.7131479836077117  0.6192719560021156  1.0000
  C   C478      1.0  0.3546933502864779  0.7459867432696515  0.6186691437812697  1.0000
  C   C479      1.0  0.3737750748649456  0.7706339388524912  0.6201817697438504  1.0000
  C   C480      1.0  0.40094065519655936  0.7633952651142882  0.6218152565724919  1.0000
  C   C481      1.0  0.40794556214379013  0.7318891878320415  0.6195778384409112  1.0000
  C   C482      1.0  0.3893630968139445  0.7067862232076543  0.6183438639195259  1.0000
  C   C483      1.0  0.32080428773432024  0.6806997584367481  0.5719172511755435  1.0000
  C   C484      1.0  0.3004944731263398  0.6830189247809182  0.5491004728918936  1.0000
  C   C485      1.0  0.27484049504669217  0.6964534692466628  0.5478670579115548  1.0000
  C   C486      1.0  0.26999597232901656  0.7085004930859009  0.5688433191793296  1.0000
  C   C487      1.0  0.2907983885477327  0.705348211695356  0.5915343872411819  1.0000
  C   C488      1.0  0.3163194819350165  0.6910375976081108  0.5936535556982526  1.0000
  H   H353      1.0  0.25257159512629473  0.6652766695674294  0.723180406974674  1.0000
  H   H354      1.0  0.3335872265948791  0.6442701353054963  0.7175775359616127  1.0000
  H   H355      1.0  0.337408050453705  0.5976779646498446  0.7417627651315086  1.0000
  H   H356      1.0  0.25474078268011163  0.6161795938631274  0.7446294804268068  1.0000
  H   H357      1.0  0.3522304653218605  0.7029669959885418  0.731217281540347  1.0000
  H   H358      1.0  0.3758871835975415  0.7355082569796434  0.7675464165577942  1.0000
  H   H359      1.0  0.29677884385958525  0.7472922210943587  0.7802647845464978  1.0000
  H   H360      1.0  0.27354717319687233  0.7168099112414308  0.7426319188905256  1.0000
  H   H361      1.0  0.2831309346079449  0.6516459088490519  0.6648281093913058  1.0000
  H   H362      1.0  0.29965873704496504  0.6495074559591463  0.6301518586254483  1.0000
  H   H363      1.0  0.35513345918776573  0.7304258805242022  0.6631660859692888  1.0000
  H   H364      1.0  0.33468526307438234  0.7347334162228346  0.6952238711508464  1.0000
  H   H365      1.0  0.3337033195121208  0.5721076471031893  0.6035790678098065  1.0000
  H   H366      1.0  0.31729660342469124  0.6273478309480249  0.5953707871701986  1.0000
  H   H367      1.0  0.38961231043198774  0.6602822488259711  0.6570111344569376  1.0000
  H   H368      1.0  0.40572391619957027  0.6039765134471025  0.6629034747047619  1.0000
  H   H369      1.0  0.3332936863360047  0.7521417540439321  0.6178745954951297  1.0000
  H   H370      1.0  0.3684725228465729  0.7953505477813221  0.6236529758831343  1.0000
  H   H371      1.0  0.42923369406554684  0.727248115407569  0.6202099333098615  1.0000
  H   H372      1.0  0.39597113835693154  0.6824009259244957  0.6163401474317324  1.0000
  H   H373      1.0  0.3406222802469328  0.6696548074655446  0.5727280261520342  1.0000
  H   H374      1.0  0.3039496537803113  0.6727920422355919  0.5330880867619887  1.0000
  H   H375      1.0  0.2493948181033017  0.7189749153715083  0.5667273214548562  1.0000
  H   H376      1.0  0.2861876457790135  0.7138552589185496  0.608278839573692  1.0000
  C   C489      1.0  0.3922514410384465  0.008754365751657332  0.9028415764833817  1.0000
  C   C490      1.0  0.4194695938513851  0.00035532736862542387  0.9171005474869951  1.0000
  C   C491      1.0  0.42648503584629743  0.9684141407761833  0.9197844793737446  1.0000
  C   C492      1.0  0.4069796120099355  0.9442535248233246  0.9100372743423667  1.0000
  C   C493      1.0  0.3808174742680992  0.952792529430252  0.8939187619272945  1.0000
  C   C494      1.0  0.37283334580830607  0.9844573716982074  0.8903824625129255  1.0000
  H   H377      1.0  0.43419007256872677  0.01931662565137798  0.9265996893210571  1.0000
  H   H378      1.0  0.44785242275730364  0.9618613448319027  0.9307720003917023  1.0000
  H   H379      1.0  0.3654526600721148  0.9346333597318455  0.8838470230889017  1.0000
  H   H380      1.0  0.3509398194528426  0.9910513660659064  0.8793949414949677  1.0000
  C   C495      1.0  0.36658439858389863  0.884662599760222  0.914258078970382  1.0000
  C   C496      1.0  0.39153229250330684  0.8799668853560499  0.9093247920763916  1.0000
  C   C497      1.0  0.3949998240165455  0.8494676450238469  0.8997510447694527  1.0000
  C   C498      1.0  0.37453016040227427  0.8259337830950911  0.8939448738428015  1.0000
  C   C499      1.0  0.34843037809232547  0.8336801901513268  0.8958193363488356  1.0000
  C   C500      1.0  0.34467610316478164  0.8624750050191508  0.9069299563970403  1.0000
  C   C501      1.0  0.4165867602036596  0.906709892163767  0.9155711352930169  1.0000
  C   C502      1.0  0.4326189390699378  0.8996502698978348  0.9442625350246828  1.0000
  C   C503      1.0  0.4482915622262499  0.8712261555628833  0.9496583758505107  1.0000
  C   C504      1.0  0.46631327391856175  0.8654574055580121  0.9730826291970616  1.0000
  C   C505      1.0  0.4683059503962719  0.887412917978306  0.992189090800857  1.0000
  C   C506      1.0  0.4501445139508175  0.9140107252621691  0.9875299790196894  1.0000
  C   C507      1.0  0.4335485875958256  0.9200491791989818  0.9641971173774129  1.0000
  C   C508      1.0  0.42035788499340515  0.9000183988654685  0.8719847529014613  1.0000
  C   C509      1.0  0.4339241190759563  0.8880350436508325  0.8562000999775136  1.0000
  C   C510      1.0  0.46200284369699124  0.8772098433170484  0.8659155976829187  1.0000
  C   C511      1.0  0.47662194888580994  0.8859173752553959  0.8903638111447062  1.0000
  C   C512      1.0  0.46321491022977596  0.9003540102618915  0.9058164697143515  1.0000
  C   C513      1.0  0.4338340347722162  0.9026816325903732  0.8972051330075255  1.0000
  C   C514      1.0  0.47354356687518  0.8525695684320205  0.849017458076282  1.0000
  C   C515      1.0  0.40356345088112117  0.7798113157452597  0.8254402635103333  1.0000
  C   C516      1.0  0.4099093917802659  0.7971048384176085  0.8074398280419391  1.0000
  C   C517      1.0  0.43092163738784467  0.8210212960380676  0.8143706764722108  1.0000
  C   C518      1.0  0.44757845996569734  0.8262571958901217  0.8392777135921918  1.0000
  C   C519      1.0  0.43963677209229113  0.8096276912199261  0.8569237730644204  1.0000
  C   C520      1.0  0.41840711337729364  0.7866835457013562  0.8503622217248895  1.0000
  C   C521      1.0  0.003151209735073449  0.8367059087519871  0.8642556259114058  1.0000
  C   C522      1.0  0.028397148175221067  0.8547734227469599  0.8732064175198219  1.0000
  C   C523      1.0  0.05459124424642129  0.8405364723239332  0.88314759678068  1.0000
  C   C524      1.0  0.056035751729758686  0.8074195781013587  0.8836959470063257  1.0000
  C   C525      1.0  0.031748750328513854  0.7891123498408846  0.8761682547930382  1.0000
  C   C526      1.0  0.006111272059402484  0.8034036989075861  0.8661170324596866  1.0000
  C   C527      1.0  0.48568772639766994  0.8511210772123976  0.8078016645853926  1.0000
  C   C528      1.0  0.4939293747307555  0.8650062279522243  0.7898422621270806  1.0000
  C   C529      1.0  0.49956344714067935  0.8973783732573359  0.7904055334473019  1.0000
  C   C530      1.0  0.4942630556671991  0.9168314853596576  0.8084787092517511  1.0000
  C   C531      1.0  0.4846163097620665  0.9037395639375045  0.826460493351926  1.0000
  C   C532      1.0  0.4798808244902463  0.8702724783762534  0.8265481547825565  1.0000
  H   H381      1.0  0.3629264554337736  0.9073230227443044  0.921877162887944  1.0000
  H   H382      1.0  0.4145432840990196  0.8431234377677782  0.8965728516248931  1.0000
  H   H383      1.0  0.3782251416183112  0.8028424342111542  0.8862679706837597  1.0000
  H   H384      1.0  0.324696734497674  0.8675066555691708  0.9090729986054318  1.0000
  H   H385      1.0  0.44724492611348443  0.8542838197298321  0.9347055739491412  1.0000
  H   H386      1.0  0.4795186573769132  0.8441061950386929  0.9761787563214563  1.0000
  H   H387      1.0  0.4505402884205936  0.9309198398182519  0.5029994238207319  1.0000
  H   H388      1.0  0.4213432309464091  0.9428432320266852  0.9615523533639238  1.0000
  H   H389      1.0  0.3977159162309394  0.9053582341391716  0.8642201883117893  1.0000
  H   H390      1.0  0.4217358688031775  0.8861033068695195  0.8373454318446779  1.0000
  H   H391      1.0  0.4980520417462628  0.8802945837024351  0.8992791651535057  1.0000
  H   H392      1.0  0.4758792034444312  0.9057920169960298  0.9250124578855992  1.0000
  H   H393      1.0  0.39831780900749325  0.7930163647528475  0.7880218885888822  1.0000
  H   H394      1.0  0.4338661503656732  0.8349045665047428  0.7996155790739655  1.0000
  H   H395      1.0  0.450834312418499  0.8138017521525974  0.8765058445578066  1.0000
  H   H396      1.0  0.41306368428145396  0.7741013351955838  0.8644701166459271  1.0000
  H   H397      1.0  0.027661564042357183  0.8811673875899859  0.8729322424069991  1.0000
  H   H398      1.0  0.07290709048383158  0.8550260890110947  0.890938273285859  1.0000
  H   H399      1.0  0.03282620231926244  0.7623410965906645  0.8766774371454235  1.0000
  H   H400      1.0  0.48933268980555766  0.7867987989357458  0.8577705451815739  1.0000
  H   H401      1.0  0.48203137412710206  0.8255502347468306  0.8064214633371681  1.0000
  H   H402      1.0  0.4970983225554883  0.8500784073900108  0.7750498619923969  1.0000
  H   H403      1.0  0.49940890742630095  0.941830588152238  0.809864505910441  1.0000
  H   H404      1.0  0.4827073679574536  0.9203678004315583  0.8405198947155936  1.0000
  C   C533      1.0  0.129250560004318  0.974390079335312  0.6617980081104072  1.0000
  C   C534      1.0  0.1009365275077948  0.9675901387459446  0.6474920356588812  1.0000
  C   C535      1.0  0.09392047086932209  0.938761404328079  0.6341143418036271  1.0000
  C   C536      1.0  0.11423190031343641  0.9157861050095182  0.6350027064719098  1.0000
  C   C537      1.0  0.14163071491554133  0.9220308726396425  0.6503654654467382  1.0000
  C   C538      1.0  0.14896117249895086  0.9514354780173194  0.6623704186010557  1.0000
  H   H405      1.0  0.08519617839848365  0.9856932927025255  0.6467858948581006  1.0000
  H   H406      1.0  0.07160185045479991  0.9335934108468099  0.6233795468250402  1.0000
  H   H407      1.0  0.15734233311279341  0.9031810969638199  0.6542540892067688  1.0000
  H   H408      1.0  0.17068098233000623  0.9561391045060212  0.6732741949757092  1.0000
  C   C539      1.0  0.15268191050267826  0.8627280552484249  0.617946589776456  1.0000
  C   C540      1.0  0.12653251078491892  0.8551323666015758  0.6197701340472517  1.0000
  C   C541      1.0  0.12047954747719058  0.822404260994031  0.6214825161634606  1.0000
  C   C542      1.0  0.1405848379889816  0.798858284992422  0.6240371940684507  1.0000
  C   C543      1.0  0.16756082344046624  0.808315913381493  0.6259905518620523  1.0000
  C   C544      1.0  0.1734721915489967  0.8398190749118956  0.6219075808451773  1.0000
  C   C545      1.0  0.10339895091873515  0.8812069452415022  0.6217072651505026  1.0000
  C   C546      1.0  0.08123935074330554  0.8833957293731395  0.593803139671371  1.0000
  C   C547      1.0  0.06298450080368197  0.8581295467487073  0.5826956903557635  1.0000
  C   C548      1.0  0.04297437867152746  0.8600337008389174  0.5600029436707714  1.0000
  C   C549      1.0  0.04162337403628627  0.88774040755204  0.5465277031597308  1.0000
  C   C550      1.0  0.06057974555411185  0.9123544762841314  0.5564953673634601  1.0000
  C   C551      1.0  0.08064414924260582  0.9105075456294526  0.5796566364181196  1.0000
  C   C552      1.0  0.10750882564106305  0.8604742125511268  0.6654881813125849  1.0000
  C   C553      1.0  0.09677654594755343  0.8473169835558159  0.6826233798092882  1.0000
  C   C554      1.0  0.06814785737745224  0.8392550600214823  0.6766256593310255  1.0000
  C   C555      1.0  0.050383587321527964  0.8474865298478951  0.6530037014813506  1.0000
  C   C556      1.0  0.060462612579687075  0.8633153148950221  0.6368876137441467  1.0000
  C   C557      1.0  0.08957332048978854  0.8677183909364856  0.6416258073265639  1.0000
  C   C558      1.0  0.05679724009525861  0.8202402413312894  0.6959531396482189  1.0000
  C   C559      1.0  0.11149547193963534  0.7358608847915266  0.7072857109782328  1.0000
  C   C560      1.0  0.11613459497990904  0.7586038227485803  0.7263865771715624  1.0000
  C   C561      1.0  0.09920492782939827  0.7851079599056187  0.7231692161537425  1.0000
  C   C562      1.0  0.07621754977648232  0.788588816915358  0.701936498572953  1.0000
  C   C563      1.0  0.07285007549602121  0.7670856272110103  0.6823089177411118  1.0000
  C   C564      1.0  0.08975013087478696  0.7397683494042798  0.6854177277958957  1.0000
  C   C565      1.0  0.02313205538341684  0.8132147629291222  0.6861063363105502  1.0000
  C   C566      1.0  0.005170150078811197  0.8396860807068283  0.6809374826359506  1.0000
  C   C567      1.0  0.47626851505859624  0.8358473881725648  0.6709479963314048  1.0000
  C   C568      1.0  0.4643301934668983  0.8054683609522968  0.6673687987701316  1.0000
  C   C569      1.0  0.4812720514466731  0.778867075812272  0.6730598907548699  1.0000
  C   C570      1.0  0.010213316771859951  0.7831266565589724  0.6825303094818742  1.0000
  C   C571      1.0  0.053732298540468536  0.8261443809075761  0.7403266097786267  1.0000
  C   C572      1.0  0.05044291847303188  0.8437259794612015  0.7600821389964518  1.0000
  C   C573      1.0  0.05315524149170114  0.8768424395228621  0.7607256112000159  1.0000
  C   C574      1.0  0.060439533664579465  0.8919680672234953  0.7424025070614287  1.0000
  C   C575      1.0  0.06384060370132362  0.8745186746499104  0.7227570209160972  1.0000
  C   C576      1.0  0.06006370513195036  0.8410641962058585  0.7208750978627753  1.0000
  H   H409      1.0  0.15841171842336993  0.8864517869392389  0.6150623421950318  1.0000
  H   H410      1.0  0.09955291450337266  0.814108367380221  0.6216813397486778  1.0000
  H   H411      1.0  0.13526061081598406  0.7742816785700788  0.6265722880368106  1.0000
  H   H412      1.0  0.19506964560972806  0.8468206040011017  0.6222682983065374  1.0000
  H   H413      1.0  0.06292468354448  0.8357344379761413  0.5923280029589109  1.0000
  H   H414      1.0  0.02808090293192442  0.8408596896982334  0.5528531281776058  1.0000
  H   H415      1.0  0.0605771971689415  0.9327481278349674  0.5451713756628271  1.0000
  H   H416      1.0  0.09437383373396739  0.9304782130920809  0.5864330515195361  1.0000
  H   H417      1.0  0.12998571222351094  0.8644639670585177  0.6710375228988572  1.0000
  H   H418      1.0  0.11183777293973213  0.8413345179973258  0.7004369285681256  1.0000
  H   H419      1.0  0.028064927510152337  0.8405341223661593  0.6454349762579805  1.0000
  H   H420      1.0  0.04467235678060546  0.8716447314167394  0.6202388429306013  1.0000
  H   H421      1.0  0.1339530687339964  0.755634589741189  0.7437304844786392  1.0000
  H   H422      1.0  0.10410867079856305  0.8024291840960305  0.7384297656307294  1.0000
  H   H423      1.0  0.056706372890760144  0.7711659920798077  0.664858324607821  1.0000
  H   H424      1.0  0.08395796911718612  0.722403612532477  0.6702312242507391  1.0000
  H   H425      1.0  0.013633999650617557  0.8640090351887707  0.6814019017046099  1.0000
  H   H426      1.0  0.46312232697870237  0.8567430994056189  0.6670755992617249  1.0000
  H   H427      1.0  0.47261391797590085  0.7547960198525371  0.6702532328652379  1.0000
  H   H428      1.0  0.022509112441025686  0.7607081702543742  0.6868027783998568  1.0000
  H   H429      1.0  0.05105791521210881  0.8000956872567886  0.7401382309596123  1.0000
  H   H430      1.0  0.04482853486457809  0.8313695951227551  0.7742030898752431  1.0000
  H   H431      1.0  0.061835030292454025  0.917623278311487  0.7432735259572676  1.0000
  H   H432      1.0  0.06420851156771816  0.8881661590896153  0.7069182790243136  1.0000
  C   C577      1.0  0.190637691616604  0.4911342126457461  0.8807135932280684  1.0000
  C   C578      1.0  0.21478212027214166  0.4798988915976634  0.8979940858831996  1.0000
  C   C579      1.0  0.21586740199309767  0.44882299839976225  0.9067751500408207  1.0000
  C   C580      1.0  0.19217291505336134  0.42812657690439965  0.898902407515477  1.0000
  C   C581      1.0  0.16770624584114138  0.4402702459808602  0.8821758604964574  1.0000
  C   C582      1.0  0.16724913086567503  0.4710794915176565  0.8728259296081494  1.0000
  H   H433      1.0  0.2335321490849391  0.4957725993850742  0.9048018352832244  1.0000
  H   H434      1.0  0.23600867736652203  0.44013803859562844  0.9191223558019613  1.0000
  H   H435      1.0  0.14881980363228625  0.4261373144787289  0.8737603631559336  1.0000
  H   H436      1.0  0.14788395753281716  0.4783279071032032  0.858511004499878  1.0000
  C   C583      1.0  0.14810794271355807  0.38276417311878363  0.9107199144191912  1.0000
  C   C584      1.0  0.16757807005080802  0.3715520995982887  0.9002676876691258  1.0000
  C   C585      1.0  0.16246039264064654  0.3411059601577892  0.8884203385762608  1.0000
  C   C586      1.0  0.1375866608847293  0.3245683265998368  0.8847329630793159  1.0000
  C   C587      1.0  0.11767090396336327  0.3376484717184691  0.8936856198245539  1.0000
  C   C588      1.0  0.12283526999092992  0.3668569469604247  0.9065457382117239  1.0000
  C   C589      1.0  0.19563537775586926  0.3906164199679887  0.9038562109145085  1.0000
  C   C590      1.0  0.21393812203143453  0.3810891577340765  0.931822072422446  1.0000
  C   C591      1.0  0.22394634488100046  0.34957828024914583  0.9366005529602166  1.0000
  C   C592      1.0  0.24081315138405454  0.34085350800358133  0.9596872165419993  1.0000
  C   C593      1.0  0.24684909623025303  0.3624388761973675  0.9791667055101796  1.0000
  C   C594      1.0  0.23568289041077398  0.3931012464615171  0.9757964032729619  1.0000
  C   C595      1.0  0.21879070115491273  0.40234067602015383  0.9523106004112876  1.0000
  C   C596      1.0  0.19522486827590668  0.3829420798344412  0.8587422814657969  1.0000
  C   C597      1.0  0.2075245212537295  0.3754964027286511  0.8414282163478708  1.0000
  C   C598      1.0  0.2347887844909598  0.3653260092924384  0.8481110015808266  1.0000
  C   C599      1.0  0.2506040404202857  0.3654893394091384  0.8732213386143973  1.0000
  C   C600      1.0  0.23861190509300997  0.37422358455035526  0.8906566376257483  1.0000
  C   C601      1.0  0.2102879453167926  0.38123081898557154  0.8839570661613952  1.0000
  C   C602      1.0  0.2461159610138968  0.35063441146135726  0.8272587719117098  1.0000
  C   C603      1.0  0.18821786504974197  0.26672380978507415  0.8024860246429074  1.0000
  C   C604      1.0  0.1869542111531955  0.2915844704521443  0.7865036672158356  1.0000
  C   C605      1.0  0.20526581267969227  0.3184110963980503  0.7937777008213415  1.0000
  C   C606      1.0  0.22542623031540754  0.32020021605204363  0.8171777073892074  1.0000
  C   C607      1.0  0.2262303474040098  0.29485053152801205  0.8331749859108546  1.0000
  C   C608      1.0  0.20736120280908746  0.26902274279549115  0.8257703927278139  1.0000
  C   C609      1.0  0.2799868662581286  0.3425336063367213  0.8375543271687333  1.0000
  C   C610      1.0  0.30035105193512085  0.3666937728160194  0.8470049754454254  1.0000
  C   C611      1.0  0.3282057431826192  0.35917358418711454  0.8584755669002615  1.0000
  C   C612      1.0  0.3374194674720363  0.32752427844869203  0.8596319517298547  1.0000
  C   C613      1.0  0.31742124996574467  0.3043839008968082  0.8471206139283847  1.0000
  C   C614      1.0  0.2896086993617072  0.3116213847759394  0.836453896443798  1.0000
  C   C615      1.0  0.2529379522290672  0.3638245578584777  0.7856494345513941  1.0000
  C   C616      1.0  0.2525163328646991  0.38351216912024844  0.7665075353479821  1.0000
  C   C617      1.0  0.2428288962801785  0.414776405061584  0.7655003614641428  1.0000
  C   C618      1.0  0.2334963285317305  0.426063372192203  0.7843065360396085  1.0000
  C   C619      1.0  0.235625447204917  0.40708271291475645  0.8044201715272431  1.0000
  C   C620      1.0  0.24434102932934396  0.3746973797853401  0.8051718216664788  1.0000
  H   H437      1.0  0.15188050888199453  0.40531882337615693  0.9211982530847633  1.0000
  H   H438      1.0  0.17804178927168085  0.3296020980148869  0.8822616567902658  1.0000
  H   H439      1.0  0.13351698495881023  0.3017521387509645  0.8744728454219087  1.0000
  H   H440      1.0  0.10834903932023932  0.3779797729015098  0.9143886385479167  1.0000
  H   H441      1.0  0.22113585418907553  0.3320181000275517  0.9220767325278898  1.0000
  H   H442      1.0  0.25003872972230334  0.31734268841975466  0.9619943907907199  1.0000
  H   H443      1.0  0.24025011372959446  0.40982222388342543  0.9910793343918118  1.0000
  H   H444      1.0  0.20931430623679625  0.4261653266424993  0.9496136125667846  1.0000
  H   H445      1.0  0.17221797709142161  0.38730886591797287  0.8533501709136128  1.0000
  H   H446      1.0  0.19346442981472586  0.37396810326556335  0.8224653702793635  1.0000
  H   H447      1.0  0.27271313221722276  0.3588403292319756  0.8801204797186963  1.0000
  H   H448      1.0  0.25216831921549787  0.3751198165157132  0.9099160404489416  1.0000
  H   H449      1.0  0.17335146529045445  0.2894906134849701  0.7671603332356558  1.0000
  H   H450      1.0  0.20300377210959705  0.3376915076077717  0.7809399640760346  1.0000
  H   H451      1.0  0.2410087095006321  0.2956654431208711  0.851686468868456  1.0000
  H   H452      1.0  0.2089561542758764  0.24984556153133752  0.839025920121232  1.0000
  H   H453      1.0  0.29317047904803173  0.3914558774987072  0.8472716900109605  1.0000
  H   H454      1.0  0.3428366041449318  0.3782831744925332  0.8672846081102115  1.0000
  H   H455      1.0  0.323493038353468  0.27976360954262414  0.8447649461222939  1.0000
  H   H456      1.0  0.2750402389072596  0.29170996027644935  0.8280794321133566  1.0000
  H   H457      1.0  0.2609899039017412  0.3396262926212917  0.7861381003987384  1.0000
  H   H458      1.0  0.2601003938044691  0.3728364056298996  0.7526756806765894  1.0000
  H   H459      1.0  0.22557617163818647  0.4499546316023666  0.7843363782287592  1.0000
  H   H460      1.0  0.23136747820266973  0.4184489805168218  0.819805685171299  1.0000
  C   C621      1.0  0.3886663786863982  0.4974459072696288  0.619789904497564  1.0000
  C   C622      1.0  0.36368471410157277  0.48665754820114415  0.6020992682552916  1.0000
  C   C623      1.0  0.35791933974580814  0.45432970716346543  0.598438377701218  1.0000
  C   C624      1.0  0.3774482660686314  0.43145498194107057  0.6106279794009061  1.0000
  C   C625      1.0  0.4023366096946849  0.4427503616542204  0.6282630345658853  1.0000
  C   C626      1.0  0.4083836852868442  0.4747755986397008  0.6325711275971667  1.0000
  H   H461      1.0  0.3485450853120501  0.5041458608032521  0.5912109725162602  1.0000
  H   H462      1.0  0.33708968633814956  0.4467711548928155  0.5860432379237538  1.0000
  H   H463      1.0  0.41826387609252985  0.4261407491672611  0.6385550460629473  1.0000
  H   H464      1.0  0.4281611285421861  0.48267333034059434  0.6462386637145479  1.0000
  C   C627      1.0  0.42149462291876866  0.3751324239368456  0.6104310209525109  1.0000
  C   C628      1.0  0.39572631763810684  0.3686501196234231  0.6141267895651544  1.0000
  C   C629      1.0  0.39249544138017695  0.3382703879551396  0.6232806945734781  1.0000
  C   C630      1.0  0.4131097867670136  0.316156081047724  0.6281565352533534  1.0000
  C   C631      1.0  0.439233545586647  0.32299087437352497  0.6263348561193796  1.0000
  C   C632      1.0  0.44299630136755613  0.3532452551658422  0.6176255997294028  1.0000
  C   C633      1.0  0.3694847353170985  0.3937996118132291  0.6064472752145621  1.0000
  C   C634      1.0  0.352948780112325  0.3808436426436049  0.5783101941463723  1.0000
  C   C635      1.0  0.3384641492486385  0.35153718773869913  0.5744889018256132  1.0000
  C   C636      1.0  0.32215713800249696  0.34120614862411247  0.5516760403292892  1.0000
  C   C637      1.0  0.31948186850529076  0.3595197460209784  0.5311192483327651  1.0000
  C   C638      1.0  0.3358725231510103  0.38772724548345266  0.5339861501417454  1.0000
  C   C639      1.0  0.3529328895590151  0.3979652294423957  0.5572667879530081  1.0000
  C   C640      1.0  0.3650765734360966  0.39095221741382397  0.6501683204846608  1.0000
  C   C641      1.0  0.3502292173442696  0.3826336943257633  0.6656476505108595  1.0000
  C   C642      1.0  0.32197817395724015  0.37324384560026075  0.6562523967977788  1.0000
  C   C643      1.0  0.308173559185483  0.3800051381878655  0.6314507399082365  1.0000
  C   C644      1.0  0.32300589537704755  0.3895099743550911  0.616220592161447  1.0000
  C   C645      1.0  0.3519877301547532  0.39221598164041266  0.6246946547981792  1.0000
  C   C646      1.0  0.30789715807805745  0.35201381294880907  0.6729526453876093  1.0000
  C   C647      1.0  0.3774759181405634  0.30139859383485146  0.7278134068403348  1.0000
  C   C648      1.0  0.35550185222092884  0.3144576049637525  0.7343768233166874  1.0000
  C   C649      1.0  0.3334057447132162  0.3303108553105806  0.7177715101910928  1.0000
  C   C650      1.0  0.33176380666729827  0.3316743540908345  0.692663038294344  1.0000
  C   C651      1.0  0.35218745311006067  0.314380342174838  0.6854251883431834  1.0000
  C   C652      1.0  0.3754313835525955  0.3005211190719505  0.7030798274447927  1.0000
  C   C653      1.0  0.2836489193574418  0.32661681905160284  0.6559659117819312  1.0000
  C   C654      1.0  0.25760228723830597  0.33864710351776506  0.639892162650585  1.0000
  C   C655      1.0  0.2345128175243464  0.3180054391831945  0.62894399601957  1.0000
  C   C656      1.0  0.23621381522026805  0.2855159312728939  0.6335227204037126  1.0000
  C   C657      1.0  0.26141494455551356  0.273356043065746  0.6476494532066517  1.0000
  C   C658      1.0  0.28432351692837365  0.29329389443918247  0.6589930288439148  1.0000
  C   C659      1.0  0.26940717045702595  0.36981893999960214  0.6937877157979645  1.0000
  C   C660      1.0  0.2598672496265596  0.3903371164250002  0.7083525692403735  1.0000
  C   C661      1.0  0.2742585489573992  0.41802805114927605  0.7190025004935628  1.0000
  C   C662      1.0  0.2985925538270503  0.4254458215189073  0.7141027860623671  1.0000
  C   C663      1.0  0.3074572761682914  0.40609247495836054  0.6981670570558435  1.0000
  C   C664      1.0  0.29343069626251433  0.3774669244570841  0.6876831229798053  1.0000
  H   H465      1.0  0.4241545488719668  0.3977594898309316  0.6022663845145361  1.0000
  H   H466      1.0  0.37247072168527856  0.3311046003148736  0.6253446549806199  1.0000
  H   H467      1.0  0.4096962577209967  0.29373865536590754  0.6357192920388932  1.0000
  H   H468      1.0  0.46281428160365745  0.35904486319087286  0.6156511658897135  1.0000
  H   H469      1.0  0.33884108513874767  0.33731443655593796  0.5903009722608432  1.0000
  H   H470      1.0  0.30882157176383185  0.3202510416748926  0.5484978471847296  1.0000
  H   H471      1.0  0.33550746733822384  0.40185916508934943  0.5179983278637854  1.0000
  H   H472      1.0  0.3645980618295287  0.4209965672761711  0.5600715807058183  1.0000
  H   H473      1.0  0.38786240427098645  0.3950345387845441  0.657998910917829  1.0000
  H   H474      1.0  0.362707645490655  0.37998948599148813  0.6851963360551333  1.0000
  H   H475      1.0  0.28634681693103164  0.3758223619391049  0.622667064559065  1.0000
  H   H476      1.0  0.31129826614305856  0.3916778160758652  0.5964900557770356  1.0000
  H   H477      1.0  0.35607738856857074  0.3141789761190405  0.7532258960390572  1.0000
  H   H478      1.0  0.31862767768483385  0.34102992642259805  0.7258550131773138  1.0000
  H   H479      1.0  0.3505588406216881  0.31308016235737157  0.6656213520816703  1.0000
  H   H480      1.0  0.39150852482049836  0.2899525106444293  0.6967737998498658  1.0000
  H   H481      1.0  0.25479756213163934  0.3642050000225302  0.6382014161215105  1.0000
  H   H482      1.0  0.21422039431354958  0.3269841101820482  0.618169473626676  1.0000
  H   H483      1.0  0.2632517002420424  0.24718139479708506  0.6499711755225833  1.0000
  H   H484      1.0  0.3030209496783889  0.2815474249116678  0.669973275828267  1.0000
  H   H485      1.0  0.2587535622108804  0.3466960379577437  0.6875973266859967  1.0000
  H   H486      1.0  0.24019503111166352  0.3847518206918837  0.7107119673201081  1.0000
  H   H487      1.0  0.31117452619397157  0.4470924919274572  0.7226208659280966  1.0000
  H   H488      1.0  0.3267279496314803  0.4129388537911427  0.6961172716885483  1.0000
  C   C665      1.0  0.06169566029168932  0.2678825246713144  0.8824183282833074  1.0000
  C   C666      1.0  0.03582239693874615  0.28091863269202316  0.8696067034535075  1.0000
  C   C667      1.0  0.01427281939290832  0.2616053442867196  0.8544170291757536  1.0000
  C   C668      1.0  0.01780616851138702  0.22787688364197767  0.8531617920945984  1.0000
  C   C669      1.0  0.04373524683055072  0.2151977320234721  0.8669153110194703  1.0000
  C   C670      1.0  0.06538876043283369  0.23535730842608407  0.8807098629544244  1.0000
  H   H489      1.0  0.031990189938279234  0.3057146133610544  0.871005556069951  1.0000
  H   H490      1.0  0.49471995044963707  0.272349531550416  0.8428289341011362  1.0000
  H   H491      1.0  0.048246613215970645  0.18973555736349879  0.8663669607938246  1.0000
  H   H492      1.0  0.08540938201611689  0.22473922538720964  0.8906920752253649  1.0000
  C   C671      1.0  0.020542199280876364  0.1692093024010732  0.8166349525740274  1.0000
  C   C672      1.0  0.49928134710237754  0.17251585967925237  0.8272848838272167  1.0000
  C   C673      1.0  0.4800979790188584  0.14713104856432208  0.823493060668244  1.0000
  C   C674      1.0  0.4813272728706636  0.12080379032524201  0.8087267724490671  1.0000
  C   C675      1.0  0.002202197134052702  0.11818152429343928  0.7982726805621797  1.0000
  C   C676      1.0  0.02213154425771486  0.14237291161404675  0.8024505870432909  1.0000
  C   C677      1.0  0.49235408792851243  0.20556632652710513  0.8379236242594745  1.0000
  C   C678      1.0  0.47327183379655363  0.221247814401557  0.8121940618010248  1.0000
  C   C679      1.0  0.4448065522893033  0.21297880932676602  0.8013464260447114  1.0000
  C   C680      1.0  0.427759704814401  0.2245498609914414  0.778655171469177  1.0000
  C   C681      1.0  0.4395568339706312  0.2447345359655592  0.7661102612049121  1.0000
  C   C682      1.0  0.4680469797203481  0.2515956971217285  0.7751561747912463  1.0000
  C   C683      1.0  0.48507029390510453  0.23992756647706712  0.7977299257469996  1.0000
  C   C684      1.0  0.4907181834988993  0.17950550999272924  0.8793333919798443  1.0000
  C   C685      1.0  0.48071981694417193  0.17945880214341084  0.8992381321434234  1.0000
  C   C686      1.0  0.45877449933136644  0.19910400285427346  0.899892795167919  1.0000
  C   C687      1.0  0.44567097360343827  0.21683572887707797  0.8789249270158428  1.0000
  C   C688      1.0  0.4569097508550607  0.21997632641460202  0.8605402733621321  1.0000
  C   C689      1.0  0.47906505761630425  0.20109227364803192  0.8596431425507864  1.0000
  C   C690      1.0  0.44500933404068505  0.19689709772816888  0.9213437337568735  1.0000
  C   C691      1.0  0.40737906021905157  0.09958236509657231  0.8977441575490618  1.0000
  C   C692      1.0  0.4320419096881248  0.10351226791913955  0.9170110209195428  1.0000
  C   C693      1.0  0.4429557881495683  0.13392176563387603  0.9254488999019296  1.0000
  C   C694      1.0  0.42977278963653653  0.16166152411943485  0.9148176200169594  1.0000
  C   C695      1.0  0.40537301610502097  0.15709565107282564  0.8946349744669134  1.0000
  C   C696      1.0  0.3929954376909104  0.12678820198832  0.8870904960222286  1.0000
  C   C697      1.0  0.4256848628925332  0.22742411023740894  0.921455641966189  1.0000
  C   C698      1.0  0.43674403187946187  0.258202829453382  0.9216570767429569  1.0000
  C   C699      1.0  0.41942584454847803  0.2842131283194856  0.9154088683895095  1.0000
  C   C700      1.0  0.3907942584101035  0.280653507759548  0.9116655387879068  1.0000
  C   C701      1.0  0.38020838125595474  0.25085256949537144  0.9152596574437556  1.0000
  C   C702      1.0  0.39795089359975444  0.2246273298035422  0.9207785972998305  1.0000
  C   C703      1.0  0.45584264116083195  0.1891265576423686  0.9677520681600011  1.0000
  C   C704      1.0  0.4725978181395892  0.19052185484063397  0.9922711568210217  1.0000
  C   C705      1.0  0.49956886202231593  0.20170141165306876  0.9985771844159488  1.0000
  C   C706      1.0  0.009596630312711041  0.21280074640711463  0.980714769072377  1.0000
  C   C707      1.0  0.49334932369059303  0.21180211154855766  0.955882337425273  1.0000
  C   C708      1.0  0.466251625276714  0.19879490881475495  0.9491118907616869  1.0000
  H   H493      1.0  0.03543796332546835  0.18895288837168145  0.8179200318443334  1.0000
  H   H494      1.0  0.46281108216139943  0.14847915572488748  0.8309666639136959  1.0000
  H   H495      1.0  0.46535869565863125  0.10171953507475734  0.8052426968657119  1.0000
  H   H496      1.0  0.03846009151975607  0.14218927094955247  0.7942402547531787  1.0000
  H   H497      1.0  0.4355788688528357  0.1952612579853848  0.8103009479267715  1.0000
  H   H498      1.0  0.4052377687542976  0.2190564576766138  0.7716702340710694  1.0000
  H   H499      1.0  0.4772837108572951  0.26764215880939457  0.7647170039989346  1.0000
  H   H500      1.0  0.006979839550157964  0.2465226304185292  0.8039203148589674  1.0000
  H   H501      1.0  0.007382521728241264  0.16324495056466795  0.8792475956860357  1.0000
  H   H502      1.0  0.48911539980876617  0.16154542028568225  0.9139950946784907  1.0000
  H   H503      1.0  0.42546221006019636  0.22773888207966278  0.8761365474670655  1.0000
  H   H504      1.0  0.4460296125037248  0.2353152010162538  0.8444273563575255  1.0000
  H   H505      1.0  0.44368226138917716  0.08201362642540982  0.9241433041265824  1.0000
  H   H506      1.0  0.4636578314295607  0.13492257814414646  0.9400286744389141  1.0000
  H   H507      1.0  0.395053093929312  0.17719011398364423  0.8836754305012847  1.0000
  H   H508      1.0  0.373498026190669  0.12523719425756344  0.8714102907603085  1.0000
  H   H509      1.0  0.4590058837303088  0.2605155079996607  0.9234494732288263  1.0000
  H   H510      1.0  0.42902869452021053  0.30703931865808454  0.9122866293496078  1.0000
  H   H511      1.0  0.35807830365267623  0.24649203315387797  0.9119565001321271  1.0000
  H   H512      1.0  0.38930298003486313  0.20133673280887163  0.9226940928159469  1.0000
  H   H513      1.0  0.43320376464176796  0.18102952056035024  0.9624494841752695  1.0000
  H   H514      1.0  0.4641813549903883  0.1820722403399934  0.5062559527118123  1.0000
  H   H515      1.0  0.03091914741606432  0.22178205885848362  0.9861721594133283  1.0000
  H   H516      1.0  0.0018747611831371775  0.2210753964009517  0.942675303589225  1.0000
  C   C709      1.0  0.4938224174815115  0.263606786666288  0.6736595322431188  1.0000
  C   C710      1.0  0.02103496397796638  0.2720957065938634  0.6876775275693395  1.0000
  C   C711      1.0  0.04018231140638975  0.24891926055358524  0.7002000561917411  1.0000
  C   C712      1.0  0.031066267347420698  0.21711788182977726  0.7005096689041806  1.0000
  C   C713      1.0  0.003517459673393118  0.2085880438053132  0.6852244996211443  1.0000
  C   C714      1.0  0.4855301484694934  0.23151756417667715  0.6724121287366156  1.0000
  H   H517      1.0  0.029223156376391626  0.29715291244776654  0.6894867102866064  1.0000
  H   H518      1.0  0.062214269302989345  0.2555249141298699  0.7091657688947326  1.0000
  H   H519      1.0  0.49509751667238444  0.18370923248957666  0.6825730211150963  1.0000
  H   H520      1.0  0.46426284276928786  0.2246781304690249  0.6614507196341648  1.0000
  C   C715      1.0  0.015006105124888336  0.16186891965747904  0.731368357622923  1.0000
  C   C716      1.0  0.037661713090346736  0.1583861102221025  0.7227570209160972  1.0000
  C   C717      1.0  0.04987508110633543  0.12791855801609783  0.723575815980922  1.0000
  C   C718      1.0  0.04181228587473036  0.10347257287576014  0.7358390905850762  1.0000
  C   C719      1.0  0.021123399910363612  0.1088780661031149  0.7462409586409496  1.0000
  C   C720      1.0  0.005681666714527072  0.1366566798556701  0.742173095232332  1.0000
  C   C721      1.0  0.0521051929273222  0.18972165825738868  0.7154811221737694  1.0000
  C   C722      1.0  0.07378750304007138  0.19966288686037428  0.7425629088281143  1.0000
  C   C723      1.0  0.09823205052743036  0.18233124739651388  0.7526327825296852  1.0000
  C   C724      1.0  0.11935618084766064  0.1932752189181779  0.7736472791023093  1.0000
  C   C725      1.0  0.11720431362291338  0.22320843200702062  0.7842934800818551  1.0000
  C   C726      1.0  0.09185415721075274  0.23916293645108536  0.7756578965963442  1.0000
  C   C727      1.0  0.07012875110485957  0.2269955084562714  0.7555330702877778  1.0000
  C   C728      1.0  0.05396078514216943  0.1606827002205696  0.6751331768461213  1.0000
  C   C729      1.0  0.06779571062818693  0.15236342384607549  0.6589258839183254  1.0000
  C   C730      1.0  0.09343064361282329  0.16693785595976504  0.6606654970321345  1.0000
  C   C731      1.0  0.10587358605381551  0.18751985725042325  0.6807311985034458  1.0000
  C   C732      1.0  0.09229524612372943  0.19598634759710362  0.6972251629607715  1.0000
  C   C733      1.0  0.06658213806787122  0.18187186097966623  0.6951306143097501  1.0000
  C   C734      1.0  0.10689885686728286  0.16133544321247847  0.6388592498786032  1.0000
  C   C735      1.0  0.14193746310161728  0.06394852882928546  0.6584957833671896  1.0000
  C   C736      1.0  0.11642201889516934  0.06754718538839011  0.6398781741244207  1.0000
  C   C737      1.0  0.10548594726889499  0.09811030009511064  0.6331099656250206  1.0000
  C   C738      1.0  0.11931704733868256  0.12597943025211353  0.6458805574447383  1.0000
  C   C739      1.0  0.14370174875630062  0.12131490844515157  0.666403030923739  1.0000
  C   C740      1.0  0.15523435500657926  0.09120393185240644  0.6720637211782801  1.0000
  C   C741      1.0  0.12978050425516877  0.18894295402875333  0.6377032380763744  1.0000
  C   C742      1.0  0.12444950658504617  0.22188462470618717  0.6393723490183146  1.0000
  C   C743      1.0  0.14574104582632516  0.24428288020801447  0.6411544872516637  1.0000
  C   C744      1.0  0.17120503210432836  0.23475330002773642  0.6390813876740944  1.0000
  C   C745      1.0  0.1753074780573695  0.20282340329424106  0.635116293304365  1.0000
  C   C746      1.0  0.15442030417673894  0.18033905976154738  0.6334671393264193  1.0000
  C   C747      1.0  0.08866025443161486  0.150079576445958  0.5906723210020884  1.0000
  C   C748      1.0  0.06851575127529935  0.15128648833857997  0.5673271494567871  1.0000
  C   C749      1.0  0.04389461485315603  0.16778996006865388  0.5637947668297442  1.0000
  C   C750      1.0  0.03983749594601745  0.18338707143824606  0.583679736543011  1.0000
  C   C751      1.0  0.06004150640934567  0.18214819974512206  0.6067990400191772  1.0000
  C   C752      1.0  0.08428429682250681  0.16426207161989836  0.6112925276505579  1.0000
  H   H521      1.0  0.005372392576898145  0.1848029656173587  0.7307192900088932  1.0000
  H   H522      1.0  0.0678691205660813  0.12415096532027736  0.7170608930619394  1.0000
  H   H523      1.0  0.05305229395192909  0.08085674639066052  0.7386498517757165  1.0000
  H   H524      1.0  0.48871098969523874  0.14026233376100725  0.7497138434033732  1.0000
  H   H525      1.0  0.10132807099442197  0.15950172875186794  0.7434283323134873  1.0000
  H   H526      1.0  0.13903588083836171  0.18022218867939066  0.7793676537351522  1.0000
  H   H527      1.0  0.08748278680626931  0.26191297373578476  0.7843382433655811  1.0000
  H   H528      1.0  0.0514896698927574  0.24087658384221025  0.7480967697787646  1.0000
  H   H529      1.0  0.033672659894922144  0.14928650461521698  0.6722852994327246  1.0000
  H   H530      1.0  0.058244333028470256  0.13510554358086066  0.6439514464298217  1.0000
  H   H531      1.0  0.12677873350292657  0.19825847959810147  0.6836542409307661  1.0000
  H   H532      1.0  0.10331386897639513  0.21327287195008024  0.7118608916024137  1.0000
  H   H533      1.0  0.10580716309036901  0.0471878692872739  0.6281865639561863  1.0000
  H   H534      1.0  0.08600453904346222  0.1004004801714357  0.6176647676026632  1.0000
  H   H535      1.0  0.15473065269179442  0.1420873062158636  0.6775244687655109  1.0000
  H   H536      1.0  0.1747077980544423  0.08947634086235767  0.6882277429318073  1.0000
  H   H537      1.0  0.10535391711480338  0.23150810179352863  0.6415903697269474  1.0000
  H   H538      1.0  0.14175555774585505  0.26959469455061746  0.64367652526227  1.0000
  H   H539      1.0  0.19630927054856467  0.19537005097687726  0.6354755186562676  1.0000
  H   H540      1.0  0.15807903969866802  0.15522565044257564  0.6299084582701872  1.0000
  H   H541      1.0  0.10826219275562969  0.13692111985417937  0.5932465828437087  1.0000
  H   H542      1.0  0.07276087788232663  0.14042085036794216  0.5511890531050847  1.0000
  H   H543      1.0  0.021251018845757978  0.1969833783321659  0.5816349870451349  1.0000
  H   H544      1.0  0.05493352476564385  0.19406213786118026  0.6221200199291944  1.0000
  C   C753      1.0  0.019074035990147155  0.20219471168270703  0.5259076830249435  1.0000
  C   C754      1.0  0.021418773368149607  0.16860195873586387  0.538447557419789  1.0000
  H   H545      1.0  0.04037883467216441  0.21151641895878112  0.528655589104685  1.0000
  H   H546      1.0  0.010840163483184723  0.220036463014294  0.5360588766919503  1.0000
  H   H547      1.0  0.0007317168370176099  0.1622384659907331  0.5402250328110831  1.0000
  H   H548      1.0  0.025042199149758585  0.1496145194398791  0.5262519872822707  1.0000
  C   C755      1.0  0.020371624234325775  0.08411771865867253  0.765524608242828  1.0000
  C   C756      1.0  0.49981667998888135  0.08823126650305786  0.781027625506665  1.0000
  H   H549      1.0  0.01644297767241534  0.05957719685718028  0.7569916072825229  1.0000
  H   H550      1.0  0.04129846609612026  0.08292991785448617  0.7793601931878645  1.0000
  H   H551      1.0  0.47787531132180694  0.08650074722482916  0.7679567466586176  1.0000
  H   H552      1.0  0.0027184125219009963  0.06657707785630974  0.7930428369135032  1.0000
  C   C757      1.0  0.2104387568323696  0.2621948276131966  0.6245842386983211  1.0000
  C   C758      1.0  0.19646597066348995  0.2590102413858862  0.645126296113952  1.0000
  H   H553      1.0  0.19493106377942573  0.2705352378175487  0.6078317662774767  1.0000
  H   H554      1.0  0.21775159939714148  0.2379488846790826  0.6201362604053955  1.0000
  H   H555      1.0  0.21202260539542925  0.25214832695364225  0.6626639911368267  1.0000
  H   H556      1.0  0.18971670992856543  0.28282639978385227  0.6501166561946934  1.0000
  C   C759      1.0  0.4714889063650741  0.29039669449574246  0.6632802323427905  1.0000
  C   C760      1.0  0.46291786351434105  0.29746850357225985  0.6351576993418118  1.0000
  H   H557      1.0  0.4787396707980201  0.3124494339948771  0.6739635495450925  1.0000
  H   H558      1.0  0.4515347954166571  0.2836073880011658  0.6678488849880949  1.0000
  H   H559      1.0  0.4579864099104519  0.2745770431899137  0.6249641670689472  1.0000
  H   H560      1.0  0.4821121174496315  0.304544930262555  0.6306228056729842  1.0000
  C   C761      1.0  0.40289071480582583  0.289015370164207  0.7490852922943846  1.0000
  C   C762      1.0  0.4203149002028792  0.2606935592525332  0.7429471270134308  1.0000
  H   H561      1.0  0.4171732032649138  0.31060023673965453  0.7570009329666325  1.0000
  H   H562      1.0  0.3954696930743434  0.28237519234791253  0.7652411074458954  1.0000
  H   H563      1.0  0.4335434426523657  0.27023311585900833  0.7322039389191451  1.0000
  H   H564      1.0  0.40576050865681074  0.24333845995610176  0.7303593186022618  1.0000
  C   C763      1.0  0.08839958088415337  0.32189726960184833  0.8863500367039245  1.0000
  C   C764      1.0  0.08610947394085265  0.28993143745960726  0.8986580745918047  1.0000
  H   H565      1.0  0.08106867296134705  0.31692927470259036  0.8664415662667013  1.0000
  H   H566      1.0  0.07320314787861251  0.3391331638695048  0.8892671106934146  1.0000
  H   H567      1.0  0.08450455123861295  0.29410523373766856  0.9173113079478725  1.0000
  H   H568      1.0  0.10580758020520759  0.2766041554035952  0.9011144597862796  1.0000
  C   C765      1.0  0.3676392987313826  0.31784732633035856  0.8741520418885378  1.0000
  C   C766      1.0  0.369981975992564  0.30814505172191226  0.9006854783172369  1.0000
  H   H569      1.0  0.3720633530828311  0.29633724471815664  0.864029944355953  1.0000
  H   H570      1.0  0.3820867946909938  0.3377818682442301  0.8731411377310545  1.0000
  H   H571      1.0  0.3746506417225222  0.3299239689442279  0.9132826124125156  1.0000
  H   H572      1.0  0.3483382255308905  0.3003338600223551  0.8998219199686858  1.0000
  C   C767      1.0  0.1432685317562936  0.23882486321152727  0.8038009461023643  1.0000
  C   C768      1.0  0.16959965290543116  0.23693808483963014  0.7946002261598102  1.0000
  H   H573      1.0  0.1382784163290872  0.26410908857945925  0.8063170156751406  1.0000
  H   H574      1.0  0.14814001736745008  0.2267267825242383  0.8219878952529509  1.0000
  H   H575      1.0  0.16217117552594773  0.23538347745222166  0.7736920423860357  1.0000
  H   H576      1.0  0.18146220874404007  0.21490344557123123  0.8007495822616957  1.0000
  C   C769      1.0  0.266728520339798  0.35249514374375546  0.5050175018620543  1.0000
  C   C770      1.0  0.29807214258007625  0.35078382052395846  0.5055733126349878  1.0000
  H   H577      1.0  0.2597424018971683  0.32926164143380626  0.5097642750738524  1.0000
  H   H578      1.0  0.2650530417433517  0.3698191721428775  0.5198482265178749  1.0000
  H   H579      1.0  0.3006119457814138  0.3673428869619787  0.9911110417177846  1.0000
  H   H580      1.0  0.30239730672660864  0.32627873463442847  0.999783927939734  1.0000
  C   C771      1.0  0.2378621865964885  0.4352672124189629  0.7419250320350161  1.0000
  C   C772      1.0  0.2659783070530156  0.44189576956602195  0.7368369387848059  1.0000
  H   H581      1.0  0.2207249837239528  0.42561085800969495  0.7253047978148461  1.0000
  H   H582      1.0  0.22832229045240846  0.4579905437748115  0.7459276156548662  1.0000
  H   H583      1.0  0.2842161976877309  0.44460369614768985  0.7545781202349526  1.0000
  H   H584      1.0  0.2636204577320238  0.4662979712897319  0.7287068073780366  1.0000
  C   C773      1.0  0.13888293160156143  0.007395894293559694  0.6752195326809766  1.0000
  C   C774      1.0  0.15397939109441683  0.030045284930691266  0.6625813655756154  1.0000
  H   H585      1.0  0.12101970129694138  0.020296242119711302  0.677985903615255  1.0000
  H   H586      1.0  0.15343967473645376  0.002938398864180457  0.6946102411364332  1.0000
  H   H587      1.0  0.15311273494590175  0.018820115107955965  0.6443632686401026  1.0000
  H   H588      1.0  0.17683259014785635  0.03139896610763518  0.6719255145397754  1.0000
  C   C775      1.0  0.38432574923405455  0.044670907416947014  0.9022074299639273  1.0000
  C   C776      1.0  0.39788575894445644  0.06583635836310817  0.8870270813702831  1.0000
  H   H589      1.0  0.36159296413422143  0.047803721830507954  0.8947263661711878  1.0000
  H   H590      1.0  0.39143341581585467  0.05350596191260933  0.9215768758596141  1.0000
  H   H591      1.0  0.38226624527243364  0.0682580663765398  0.8677751390943774  1.0000
  H   H592      1.0  0.41629900336592834  0.05398863673561117  0.8846527621959731  1.0000
  C   C777      1.0  0.48959494324421354  0.8825095042101817  0.5179406391818833  1.0000
  C   C778      1.0  0.020785597486383187  0.8895807388204481  0.5197725019629047  1.0000
  H   H593      1.0  0.4844935434905589  0.8987301491305695  0.5314907835876925  1.0000
  H   H594      1.0  0.48722222491450823  0.8578109994393475  0.5244931632591959  1.0000
  H   H595      1.0  0.027769567813607402  0.8728016045588229  0.5077648484007493  1.0000
  H   H596      1.0  0.022253194545214006  0.9145991847895469  0.5133789102347422  1.0000
  C   C779      1.0  0.045846836128838934  0.897715510904229  0.7804233211763615  1.0000
  C   C780      1.0  0.014605157116318424  0.9091692325310657  0.7728583262266353  1.0000
  H   H597      1.0  0.05150613020767565  0.8852368458184964  0.7983379603509472  1.0000
  H   H598      1.0  0.05880551465948918  0.9203133368205525  0.7847243266877196  1.0000
  H   H599      1.0  0.002339805720669064  0.8995637440416485  0.7536865848340725  1.0000
  H   H600      1.0  0.013467853112138575  0.9355979373072202  0.7709073931109023  1.0000
  C   C781      1.0  0.3790809532596653  0.5500458948772381  0.6392540993438046  1.0000
  C   C782      1.0  0.3956271963009358  0.5339668261547472  0.6237497764841922  1.0000
  H   H601      1.0  0.3910201478792141  0.5482257013085247  0.6595835311617361  1.0000
  H   H602      1.0  0.35953049386010927  0.5361909729090324  0.6373371117182306  1.0000
  H   H603      1.0  0.4188168664979576  0.5388450940978264  0.6328867087474364  1.0000
  H   H604      1.0  0.39086597412704327  0.5436061929445092  0.6052257971098838  1.0000
  C   C783      1.0  0.1922088366959699  0.7685391423762398  0.6589111493374323  1.0000
  C   C784      1.0  0.1914350079144149  0.7838997714290049  0.6342090907541809  1.0000
  H   H605      1.0  0.19113063727848154  0.786114516648527  0.6730998046828591  1.0000
  H   H606      1.0  0.17314349431823703  0.7529044460372113  0.6567531860344655  1.0000
  H   H607      1.0  0.1901928905087757  0.7656974789137058  0.6193338785446034  1.0000
  H   H608      1.0  0.21170125767292272  0.7957853849903401  0.6362954328031857  1.0000
  C   C785      1.0  0.4323042248473876  0.8014727497971283  0.6554130852279128  1.0000
  C   C786      1.0  0.42296049594298213  0.7903275230776448  0.6274304374885781  1.0000
  H   H609      1.0  0.42156507331925047  0.8244854895395953  0.6574615649994325  1.0000
  H   H610      1.0  0.42481939719903483  0.7838264147610815  0.6661450825012668  1.0000
  H   H611      1.0  0.44198458169394933  0.7824024706776169  0.6230962325417898  1.0000
  H   H612      1.0  0.4153134183863689  0.811418131939547  0.6157231601710398  1.0000
  C   C787      1.0  0.35202055134928756  0.765610673442177  0.8001657944364332  1.0000
  C   C788      1.0  0.38088426695037586  0.7534205865143594  0.8178734034237852  1.0000
  H   H613      1.0  0.3542718005558363  0.7909097680120187  0.7949471416086882  1.0000
  H   H614      1.0  0.3370585655124497  0.7681723561092975  0.8108679495206366  1.0000
  H   H615      1.0  0.37927115530784816  0.7423799015510197  0.8347510265253808  1.0000
  H   H616      1.0  0.3892461790027786  0.733561005259154  0.8089599145518076  1.0000
  C   C789      1.0  0.1883513506283953  0.5262637476816773  0.8716975218308849  1.0000
  C   C790      1.0  0.16941208200470972  0.5456456228395058  0.8835075681873115  1.0000
  H   H617      1.0  0.2099908478015032  0.5376575140560854  0.8758418558492014  1.0000
  H   H618      1.0  0.17865763153562403  0.5261730375570443  0.8509068416768916  1.0000
  H   H619      1.0  0.17167858792377128  0.5381200941309939  0.9028285205256282  1.0000
  H   H620      1.0  0.14716803667516432  0.5394887649428983  0.8721320987103934  1.0000
  C   C791      1.0  0.08491351404636589  0.789861874208106  0.8929097229066332  1.0000
  C   C792      1.0  0.0911013754202008  0.7708684174636924  0.8716956566940629  1.0000
  H   H621      1.0  0.1017419411955571  0.8084964563424148  0.9003012601319204  1.0000
  H   H622      1.0  0.08499141315235709  0.7739195199113653  0.9084686942751282  1.0000
  H   H623      1.0  0.09351586217087178  0.7884639594795378  0.8582032569242606  1.0000
  H   H624      1.0  0.0733252369582728  0.7544267670082825  0.8620286525460279  1.0000
  C   C793      1.0  0.3135321812322867  0.8066635164930911  0.8576231993726421  1.0000
  C   C794      1.0  0.32474091161548846  0.80826532068534  0.8863164642411299  1.0000
  H   H625      1.0  0.3311205423897202  0.8046990513030642  0.8499985200446144  1.0000
  H   H626      1.0  0.30388325847681724  0.8293066367458741  0.8509198976346449  1.0000
  H   H627      1.0  0.3062592902350204  0.814928688868821  0.8926616597093173  1.0000
  H   H628      1.0  0.33162333849944275  0.7843915608479333  0.8949464523161749  1.0000
  C   C795      1.0  0.16152778439101012  0.7066340467946393  0.7134443927642277  1.0000
  C   C796      1.0  0.12859827165493368  0.7045888182499337  0.7096227274161042  1.0000
  H   H629      1.0  0.1656294904625229  0.6876549644540925  0.7008696403108121  1.0000
  H   H630      1.0  0.16583010409694482  0.7298930910582614  0.705618278659432  1.0000
  H   H631      1.0  0.12503970772537207  0.6893808811855887  0.7240514258705129  1.0000
  H   H632      1.0  0.11842366923463069  0.6906461633320766  0.6923869980446992  1.0000
  C   C797      1.0  0.25217996989087677  0.7218415453925416  0.5035328529518024  1.0000
  C   C798      1.0  0.25139184633449635  0.6955467025408578  0.5224896332850845  1.0000
  H   H633      1.0  0.24475579460097013  0.745077963278243  0.509428550445906  1.0000
  H   H634      1.0  0.27464208016347796  0.7267356899697496  0.5049149193368485  1.0000
  H   H635      1.0  0.25099851835035514  0.6713795174508559  0.5141958401627452  1.0000
  H   H636      1.0  0.23040421631146832  0.6958667068221001  0.5251853155338121  1.0000
  C   C799      1.0  0.3025880510545599  0.578042565914533  0.7652653542245803  1.0000
  C   C800      1.0  0.2839511901501506  0.5759065485653102  0.7825962055739036  1.0000
  H   H637      1.0  0.3030721354991819  0.5541095080418849  0.7565029414351786  1.0000
  H   H638      1.0  0.3245067629337176  0.5838007724891152  0.7770306372972806  1.0000
  H   H639      1.0  0.29387521515610365  0.5589818005527497  0.797278562636094  1.0000
  H   H640      1.0  0.2631257575473219  0.5641708125921486  0.771287881022575  1.0000
  C   C801      1.0  0.7941439775273241  0.7786883415918866  0.34730712761057714  1.0000
  C   C802      1.0  0.765704082297046  0.7822816587614417  0.334747296251737  1.0000
  C   C803      1.0  0.7494969691285293  0.7549640710807017  0.32509334806145535  1.0000
  C   C804      1.0  0.761198906366716  0.7244212001560438  0.3270685279558735  1.0000
  C   C805      1.0  0.7891521677744496  0.7211461435084316  0.3420604977305033  1.0000
  C   C806      1.0  0.8057077402456188  0.7481115585956472  0.35084156188812426  1.0000
  H   H641      1.0  0.7553010464644491  0.8052214484254111  0.3332458611100877  1.0000
  H   H642      1.0  0.7275442648580291  0.7571205166858416  0.31594112167627136  1.0000
  H   H643      1.0  0.7986675896672587  0.6981392321626912  0.3467718333426848  1.0000
  H   H644      1.0  0.8282619253715058  0.7463091979408253  0.36078087601216036  1.0000
  C   C807      1.0  0.7796637485198153  0.663914621718775  0.3025345182002775  1.0000
  C   C808      1.0  0.7566526598535667  0.6621832916700129  0.311078709981514  1.0000
  C   C809      1.0  0.7465886304650224  0.6317929769597271  0.3137589115946196  1.0000
  C   C810      1.0  0.7575649733119644  0.6044448025078939  0.30654083209377153  1.0000
  C   C811      1.0  0.7781265358180313  0.606515520861495  0.29601586500765104  1.0000
  C   C812      1.0  0.7906249413982521  0.6363033184753604  0.29584240728321204  1.0000
  C   C813      1.0  0.7413008660990505  0.6937021127771215  0.3159560427708468  1.0000
  C   C814      1.0  0.7197311023257297  0.6973635730413114  0.2878875987377037  1.0000
  C   C815      1.0  0.6961945939469049  0.6772011897898307  0.27897784013936994  1.0000
  C   C816      1.0  0.6781801568692478  0.6784536665193145  0.2548038017904054  1.0000
  C   C817      1.0  0.6826711639749511  0.7011453579278549  0.2394593211564318  1.0000
  C   C818      1.0  0.7069189443917505  0.7201087684860099  0.24746635353295407  1.0000
  C   C819      1.0  0.7256839634010487  0.7167597572976661  0.2709950545415327  1.0000
  C   C820      1.0  0.7435234523570087  0.6793504075010577  0.36073238245479033  1.0000
  C   C821      1.0  0.7327979703297502  0.6798650754137259  0.37996007795201087  1.0000
  C   C822      1.0  0.7050259523439183  0.6884334817059689  0.3763920712116691  1.0000
  C   C823      1.0  0.6892010575103593  0.698446497913554  0.3529211894445702  1.0000
  C   C824      1.0  0.7005183695547801  0.6996422087090651  0.33431458450905044  1.0000
  C   C825      1.0  0.7279301010344933  0.6899141825006532  0.3373510272551437  1.0000
  C   C826      1.0  0.689681046991849  0.6859044597052837  0.39746625216259507  1.0000
  C   C827      1.0  0.675151835857352  0.5820163828798502  0.38484860156227524  1.0000
  C   C828      1.0  0.6991489018076444  0.5936409014191314  0.4028956654512175  1.0000
  C   C829      1.0  0.7031348532746492  0.6262676650585594  0.4063685502136411  1.0000
  C   C830      1.0  0.6829586092849884  0.6487257722434386  0.3931932237035658  1.0000
  C   C831      1.0  0.6595584452254445  0.6355482033522506  0.37416509784629115  1.0000
  C   C832      1.0  0.6552096733625308  0.6028766724803437  0.3709421414180055  1.0000
  C   C833      1.0  0.6628213152367738  0.7086676877132639  0.3927157486771531  1.0000
  C   C834      1.0  0.6654849582052099  0.7411798222023828  0.3874523325656819  1.0000
  C   C835      1.0  0.6430633747239635  0.7613848434092375  0.3813123021479062  1.0000
  C   C836      1.0  0.6170352095500994  0.7497977459937941  0.3804431483888893  1.0000
  C   C837      1.0  0.6143007922424781  0.7189424978080384  0.3877395636362583  1.0000
  C   C838      1.0  0.6370608602599229  0.6987427135292922  0.39459953686729693  1.0000
  C   C839      1.0  0.6960801499184468  0.6862542978744806  0.44418419927816205  1.0000
  C   C840      1.0  0.7093050796044346  0.6952779661796002  0.46916024646055415  1.0000
  C   C841      1.0  0.7333395638244845  0.7143536094131007  0.47612653249044246  1.0000
  C   C842      1.0  0.7437324273977232  0.7255793562812626  0.4580701429173906  1.0000
  C   C843      1.0  0.7298287153015939  0.717301215544788  0.4332806094171909  1.0000
  C   C844      1.0  0.7067325133206697  0.6964512302587708  0.42594875657020537  1.0000
  H   H645      1.0  0.7878651996079112  0.6868746686562919  0.2987911885986748  1.0000
  H   H646      1.0  0.7287765969372696  0.6285759960205652  0.3203167326605065  1.0000
  H   H647      1.0  0.7477999695810689  0.5816337014127881  0.30719922539191086  1.0000
  H   H648      1.0  0.8079105165277263  0.6398690727052888  0.2882867380175955  1.0000
  H   H649      1.0  0.6914132876185038  0.6591481096352392  0.2906424058236863  1.0000
  H   H650      1.0  0.6609362077212297  0.661862887590064  0.24906664092616534  1.0000
  H   H651      1.0  0.7126789631076637  0.7360012188746856  0.23498299278381277  1.0000
  H   H652      1.0  0.745349722104151  0.7304801577562348  0.2758518708258243  1.0000
  H   H653      1.0  0.7645219646782783  0.6699699570839633  0.3641530433862  1.0000
  H   H654      1.0  0.7450149736352625  0.6701278239084226  0.39753526222500624  1.0000
  H   H655      1.0  0.6669616655629903  0.7054711597333324  0.3478648035203326  1.0000
  H   H656      1.0  0.6871461445997109  0.7086702218603068  0.31669277181550703  1.0000
  H   H657      1.0  0.7139536602231347  0.5769172753167569  0.41531001613794755  1.0000
  H   H658      1.0  0.7219840212317299  0.6343939877538457  0.42161790886969647  1.0000
  H   H659      1.0  0.6449325482389205  0.6521174290523392  0.3615586380669029  1.0000
  H   H660      1.0  0.636247467452  0.592779154905287  0.35722406009275015  1.0000
  H   H661      1.0  0.6854516616751536  0.7501588362437893  0.38646567518688385  1.0000
  H   H662      1.0  0.644331120254962  0.7858037715144649  0.3748757149754444  1.0000
  H   H663      1.0  0.5940102427397582  0.7104577871995029  0.38737772709280494  1.0000
  H   H664      1.0  0.6340254805820426  0.6748520176995118  0.39975850531674034  1.0000
  H   H665      1.0  0.6768024518675327  0.6718726137987098  0.4389114574825812  1.0000
  H   H666      1.0  0.7010729693402625  0.6860172666491996  0.48323829919244093  1.0000
  H   H667      1.0  0.7615548661305327  0.7411059187924008  0.4629474757067234  1.0000
  H   H668      1.0  0.7371227068611779  0.7268723078090165  0.41934990249423615  1.0000
  C   C845      1.0  0.7181196950259521  0.7472952819471304  0.1698930749449242  1.0000
  C   C846      1.0  0.7436702323471854  0.762324466532307  0.17978426853895468  1.0000
  C   C847      1.0  0.7674465833620525  0.7452329723647306  0.19065428593713116  1.0000
  C   C848      1.0  0.7664007257596746  0.7113354162105756  0.19154768647483303  1.0000
  C   C849      1.0  0.7404035262727663  0.6960701590721522  0.17999764019138284  1.0000
  C   C850      1.0  0.7163481134138883  0.7141318792831141  0.1694359299098705  1.0000
  H   H669      1.0  0.7455843917394606  0.7891030670115061  0.18055270490958764  1.0000
  H   H670      1.0  0.7864859249165949  0.7590332037065853  0.200254145159577  1.0000
  H   H671      1.0  0.7392066242887807  0.6694753914642225  0.17822706580632983  1.0000
  H   H672      1.0  0.6960744735979669  0.7023657231320118  0.1606391986029454  1.0000
  C   C851      1.0  0.7703230997601205  0.6494431610215103  0.22463334855895326  1.0000
  C   C852      1.0  0.7926674363240573  0.6580332025306584  0.2163838483955808  1.0000
  C   C853      1.0  0.8155029524300823  0.637576518652074  0.22175544244272363  1.0000
  C   C854      1.0  0.817224345280232  0.6111431540267667  0.2356861493656784  1.0000
  C   C855      1.0  0.795625766136284  0.6028594884271712  0.244178117315901  1.0000
  C   C856      1.0  0.7714594363434414  0.6213725600533014  0.23724726888562925  1.0000
  C   C857      1.0  0.7948586717841689  0.6929578160904493  0.20605285553894054  1.0000
  C   C858      1.0  0.8105931880104448  0.7109226347933042  0.23184023723886987  1.0000
  C   C859      1.0  0.8395493656889613  0.7141585278931897  0.24106893423375275  1.0000
  C   C860      1.0  0.8532230872554268  0.7324142391880247  0.26225315825717216  1.0000
  C   C861      1.0  0.8379993300174366  0.7457832041590703  0.2758947689727286  1.0000
  C   C862      1.0  0.809165610897469  0.7389552872488403  0.268564781262565  1.0000
  C   C863      1.0  0.7958573655877925  0.7218154413181935  0.24741226456511825  1.0000
  C   C864      1.0  0.7990463552478031  0.6685681200756417  0.16516346099188786  1.0000
  C   C865      1.0  0.8090770187882178  0.6676571863641322  0.1451199546487575  1.0000
  C   C866      1.0  0.8297305057324474  0.6889358253832066  0.14365731435300422  1.0000
  C   C867      1.0  0.8390216427109476  0.7125934643225534  0.16278932833126003  1.0000
  C   C868      1.0  0.8277638928635268  0.7143811303823053  0.18189560342137331  1.0000
  C   C869      1.0  0.8086604721620297  0.6915959986666745  0.18444692408008395  1.0000
  C   C870      1.0  0.8402670170541661  0.6853909701517299  0.12022317578129715  1.0000
  C   C871      1.0  0.8711893510846974  0.5850380808781601  0.13295348064566123  1.0000
  C   C872      1.0  0.8468155952565883  0.5914655561912363  0.11419244238128619  1.0000
  C   C873      1.0  0.8377574238054055  0.622761090294777  0.1098490982640704  1.0000
  C   C874      1.0  0.8528340547258538  0.6493230972342585  0.12405323424511928  1.0000
  C   C875      1.0  0.8772387468255931  0.6413889464100165  0.1441101695733675  1.0000
  C   C876      1.0  0.886915460843403  0.6101829269041085  0.1478822222820278  1.0000
  C   C877      1.0  0.8625067262804772  0.7131479836077117  0.11927195600211561  1.0000
  C   C878      1.0  0.8546933502864779  0.7459867432696515  0.1186691437812696  1.0000
  C   C879      1.0  0.8737750748649458  0.7706339388524912  0.12018176974385042  1.0000
  C   C880      1.0  0.9009406551965593  0.7633952651142882  0.12181525657249198  1.0000
  C   C881      1.0  0.90794556214379  0.7318891878320415  0.11957783844091124  1.0000
  C   C882      1.0  0.8893630968139443  0.7067862232076543  0.11834386391952592  1.0000
  C   C883      1.0  0.8208042877343202  0.6806997584367481  0.07191725117554353  1.0000
  C   C884      1.0  0.8004944731263398  0.6830189247809182  0.049100472891893496  1.0000
  C   C885      1.0  0.7748404950466922  0.6964534692466627  0.04786705791155476  1.0000
  C   C886      1.0  0.7699959723290164  0.7085004930859009  0.06884331917932962  1.0000
  C   C887      1.0  0.7907983885477327  0.705348211695356  0.09153438724118194  1.0000
  C   C888      1.0  0.8163194819350165  0.6910375976081108  0.09365355569825266  1.0000
  H   H673      1.0  0.7525715951262947  0.6652766695674294  0.223180406974674  1.0000
  H   H674      1.0  0.8335872265948789  0.6442701353054963  0.21757753596161256  1.0000
  H   H675      1.0  0.8374080504537049  0.5976779646498446  0.24176276513150866  1.0000
  H   H676      1.0  0.7547407826801117  0.6161795938631274  0.24462948042680674  1.0000
  H   H677      1.0  0.8522304653218603  0.7029669959885418  0.23121728154034707  1.0000
  H   H678      1.0  0.8758871835975414  0.7355082569796434  0.26754641655779415  1.0000
  H   H679      1.0  0.7967788438595852  0.7472922210943587  0.2802647845464979  1.0000
  H   H680      1.0  0.773547173196872  0.7168099112414308  0.24263191889052554  1.0000
  H   H681      1.0  0.7831309346079451  0.6516459088490519  0.16482810939130582  1.0000
  H   H682      1.0  0.7996587370449649  0.6495074559591463  0.13015185862544829  1.0000
  H   H683      1.0  0.8551334591877657  0.7304258805242022  0.16316608596928883  1.0000
  H   H684      1.0  0.8346852630743823  0.7347334162228346  0.1952238711508464  1.0000
  H   H685      1.0  0.8337033195121208  0.5721076471031893  0.10357906780980652  1.0000
  H   H686      1.0  0.8172966034246912  0.6273478309480249  0.09537078717019862  1.0000
  H   H687      1.0  0.8896123104319876  0.6602822488259711  0.15701113445693768  1.0000
  H   H688      1.0  0.9057239161995702  0.6039765134471025  0.16290347470476185  1.0000
  H   H689      1.0  0.8332936863360046  0.7521417540439321  0.11787459549512971  1.0000
  H   H690      1.0  0.8684725228465727  0.7953505477813221  0.12365297588313427  1.0000
  H   H691      1.0  0.9292336940655467  0.727248115407569  0.12020993330986147  1.0000
  H   H692      1.0  0.8959711383569315  0.6824009259244957  0.11634014743173235  1.0000
  H   H693      1.0  0.8406222802469329  0.6696548074655446  0.07272802615203415  1.0000
  H   H694      1.0  0.8039496537803112  0.6727920422355919  0.03308808676198873  1.0000
  H   H695      1.0  0.7493948181033017  0.7189749153715083  0.06672732145485617  1.0000
  H   H696      1.0  0.7861876457790136  0.7138552589185496  0.10827883957369211  1.0000
  C   C889      1.0  0.8922514410384464  0.008754365751657334  0.4028415764833817  1.0000
  C   C890      1.0  0.919469593851385  0.00035532736862542116  0.4171005474869951  1.0000
  C   C891      1.0  0.9264850358462973  0.9684141407761835  0.41978447937374463  1.0000
  C   C892      1.0  0.9069796120099355  0.9442535248233246  0.41003727434236675  1.0000
  C   C893      1.0  0.8808174742680993  0.9527925294302522  0.39391876192729447  1.0000
  C   C894      1.0  0.872833345808306  0.9844573716982074  0.3903824625129254  1.0000
  H   H697      1.0  0.9341900725687268  0.019316625651377987  0.4265996893210571  1.0000
  H   H698      1.0  0.9478524227573036  0.9618613448319027  0.4307720003917023  1.0000
  H   H699      1.0  0.8654526600721146  0.9346333597318456  0.38384702308890173  1.0000
  H   H700      1.0  0.8509398194528426  0.9910513660659064  0.3793949414949677  1.0000
  C   C895      1.0  0.8665843985838986  0.884662599760222  0.4142580789703821  1.0000
  C   C896      1.0  0.8915322925033069  0.8799668853560499  0.40932479207639155  1.0000
  C   C897      1.0  0.8949998240165455  0.8494676450238469  0.39975104476945267  1.0000
  C   C898      1.0  0.8745301604022742  0.8259337830950911  0.3939448738428014  1.0000
  C   C899      1.0  0.8484303780923255  0.8336801901513268  0.39581933634883565  1.0000
  C   C900      1.0  0.8446761031647816  0.8624750050191508  0.4069299563970403  1.0000
  C   C901      1.0  0.9165867602036595  0.906709892163767  0.415571135293017  1.0000
  C   C902      1.0  0.9326189390699378  0.8996502698978351  0.4442625350246828  1.0000
  C   C903      1.0  0.9482915622262499  0.8712261555628834  0.44965837585051066  1.0000
  C   C904      1.0  0.9663132739185617  0.8654574055580123  0.47308262919706157  1.0000
  C   C905      1.0  0.968305950396272  0.887412917978306  0.49218909080085704  1.0000
  C   C906      1.0  0.9501445139508172  0.9140107252621694  0.4875299790196894  1.0000
  C   C907      1.0  0.9335485875958255  0.9200491791989819  0.46419711737741287  1.0000
  C   C908      1.0  0.9203578849934051  0.9000183988654685  0.3719847529014613  1.0000
  C   C909      1.0  0.9339241190759563  0.8880350436508325  0.35620009997751356  1.0000
  C   C910      1.0  0.9620028436969911  0.8772098433170484  0.36591559768291876  1.0000
  C   C911      1.0  0.9766219488858099  0.885917375255396  0.3903638111447062  1.0000
  C   C912      1.0  0.9632149102297758  0.9003540102618919  0.40581646971435137  1.0000
  C   C913      1.0  0.9338340347722162  0.9026816325903732  0.3972051330075256  1.0000
  C   C914      1.0  0.9735435668751801  0.8525695684320205  0.34901745807628204  1.0000
  C   C915      1.0  0.9035634508811211  0.7798113157452597  0.3254402635103333  1.0000
  C   C916      1.0  0.9099093917802658  0.7971048384176085  0.3074398280419391  1.0000
  C   C917      1.0  0.930921637387845  0.8210212960380677  0.3143706764722109  1.0000
  C   C918      1.0  0.9475784599656973  0.8262571958901217  0.33927771359219183  1.0000
  C   C919      1.0  0.939636772092291  0.8096276912199263  0.35692377306442036  1.0000
  C   C920      1.0  0.9184071133772934  0.7866835457013562  0.3503622217248896  1.0000
  C   C921      1.0  0.5031512097350734  0.8367059087519874  0.3642556259114058  1.0000
  C   C922      1.0  0.5283971481752211  0.85477342274696  0.3732064175198219  1.0000
  C   C923      1.0  0.5545912442464213  0.8405364723239332  0.38314759678068  1.0000
  C   C924      1.0  0.5560357517297587  0.807419578101359  0.3836959470063258  1.0000
  C   C925      1.0  0.5317487503285139  0.7891123498408845  0.37616825479303817  1.0000
  C   C926      1.0  0.5061112720594024  0.8034036989075861  0.3661170324596866  1.0000
  C   C927      1.0  0.98568772639767  0.8511210772123976  0.3078016645853925  1.0000
  C   C928      1.0  0.9939293747307554  0.8650062279522243  0.28984226212708064  1.0000
  C   C929      1.0  0.9995634471406792  0.8973783732573359  0.29040553344730186  1.0000
  C   C930      1.0  0.9942630556671991  0.9168314853596576  0.30847870925175114  1.0000
  C   C931      1.0  0.9846163097620665  0.9037395639375045  0.32646049335192595  1.0000
  C   C932      1.0  0.9798808244902459  0.8702724783762534  0.3265481547825565  1.0000
  H   H701      1.0  0.8629264554337734  0.9073230227443044  0.42187716288794397  1.0000
  H   H702      1.0  0.9145432840990196  0.8431234377677782  0.39657285162489314  1.0000
  H   H703      1.0  0.8782251416183112  0.8028424342111542  0.38626797068375984  1.0000
  H   H704      1.0  0.8246967344976741  0.8675066555691708  0.4090729986054317  1.0000
  H   H705      1.0  0.9472449261134843  0.8542838197298324  0.4347055739491413  1.0000
  H   H706      1.0  0.979518657376913  0.8441061950386929  0.4761787563214564  1.0000
  H   H707      1.0  0.9505402884205937  0.9309198398182521  0.002999423820731928  1.0000
  H   H708      1.0  0.921343230946409  0.9428432320266852  0.4615523533639238  1.0000
  H   H709      1.0  0.8977159162309393  0.9053582341391718  0.36422018831178926  1.0000
  H   H710      1.0  0.9217358688031775  0.8861033068695198  0.3373454318446779  1.0000
  H   H711      1.0  0.9980520417462628  0.8802945837024351  0.3992791651535057  1.0000
  H   H712      1.0  0.9758792034444309  0.90579201699603  0.4250124578855992  1.0000
  H   H713      1.0  0.8983178090074931  0.7930163647528475  0.2880218885888822  1.0000
  H   H714      1.0  0.9338661503656733  0.8349045665047429  0.29961557907396547  1.0000
  H   H715      1.0  0.9508343124184988  0.8138017521525976  0.3765058445578065  1.0000
  H   H716      1.0  0.9130636842814539  0.7741013351955838  0.36447011664592716  1.0000
  H   H717      1.0  0.5276615640423572  0.8811673875899859  0.37293224240699907  1.0000
  H   H718      1.0  0.5729070904838316  0.8550260890110947  0.39093827328585895  1.0000
  H   H719      1.0  0.5328262023192625  0.7623410965906645  0.37667743714542357  1.0000
  H   H720      1.0  0.9893326898055577  0.7867987989357458  0.35777054518157403  1.0000
  H   H721      1.0  0.9820313741271023  0.8255502347468308  0.3064214633371682  1.0000
  H   H722      1.0  0.9970983225554881  0.8500784073900108  0.2750498619923968  1.0000
  H   H723      1.0  0.999408907426301  0.941830588152238  0.30986450591044107  1.0000
  H   H724      1.0  0.9827073679574536  0.9203678004315586  0.3405198947155936  1.0000
  C   C933      1.0  0.629250560004318  0.9743900793353121  0.16179800811040715  1.0000
  C   C934      1.0  0.6009365275077947  0.9675901387459447  0.14749203565888117  1.0000
  C   C935      1.0  0.5939204708693221  0.938761404328079  0.13411434180362708  1.0000
  C   C936      1.0  0.6142319003134363  0.9157861050095182  0.13500270647190976  1.0000
  C   C937      1.0  0.6416307149155412  0.9220308726396427  0.15036546544673818  1.0000
  C   C938      1.0  0.6489611724989509  0.9514354780173194  0.1623704186010558  1.0000
  H   H725      1.0  0.5851961783984836  0.9856932927025255  0.14678589485810054  1.0000
  H   H726      1.0  0.5716018504547999  0.9335934108468099  0.12337954682504013  1.0000
  H   H727      1.0  0.6573423331127934  0.9031810969638199  0.15425408920676878  1.0000
  H   H728      1.0  0.6706809823300062  0.9561391045060215  0.17327419497570912  1.0000
  C   C939      1.0  0.6526819105026782  0.8627280552484249  0.11794658977645602  1.0000
  C   C940      1.0  0.6265325107849189  0.8551323666015758  0.11977013404725168  1.0000
  C   C941      1.0  0.6204795474771906  0.822404260994031  0.12148251616346063  1.0000
  C   C942      1.0  0.6405848379889817  0.7988582849924222  0.12403719406845073  1.0000
  C   C943      1.0  0.6675608234404662  0.8083159133814931  0.12599055186205235  1.0000
  C   C944      1.0  0.6734721915489968  0.8398190749118957  0.12190758084517725  1.0000
  C   C945      1.0  0.6033989509187351  0.8812069452415022  0.12170726515050254  1.0000
  C   C946      1.0  0.5812393507433056  0.8833957293731395  0.093803139671371  1.0000
  C   C947      1.0  0.5629845008036819  0.8581295467487075  0.08269569035576353  1.0000
  C   C948      1.0  0.5429743786715274  0.8600337008389177  0.06000294367077147  1.0000
  C   C949      1.0  0.5416233740362862  0.8877404075520401  0.046527703159730725  1.0000
  C   C950      1.0  0.5605797455541117  0.9123544762841314  0.05649536736346009  1.0000
  C   C951      1.0  0.5806441492426058  0.9105075456294526  0.0796566364181196  1.0000
  C   C952      1.0  0.607508825641063  0.8604742125511268  0.16548818131258491  1.0000
  C   C953      1.0  0.5967765459475535  0.8473169835558159  0.1826233798092883  1.0000
  C   C954      1.0  0.5681478573774521  0.8392550600214825  0.1766256593310254  1.0000
  C   C955      1.0  0.550383587321528  0.8474865298478951  0.15300370148135053  1.0000
  C   C956      1.0  0.5604626125796871  0.8633153148950221  0.13688761374414674  1.0000
  C   C957      1.0  0.5895733204897886  0.8677183909364856  0.14162580732656396  1.0000
  C   C958      1.0  0.5567972400952585  0.8202402413312895  0.19595313964821892  1.0000
  C   C959      1.0  0.6114954719396353  0.7358608847915266  0.2072857109782327  1.0000
  C   C960      1.0  0.616134594979909  0.7586038227485803  0.2263865771715624  1.0000
  C   C961      1.0  0.5992049278293982  0.7851079599056187  0.22316921615374247  1.0000
  C   C962      1.0  0.5762175497764823  0.788588816915358  0.20193649857295298  1.0000
  C   C963      1.0  0.5728500754960212  0.7670856272110103  0.1823089177411118  1.0000
  C   C964      1.0  0.589750130874787  0.7397683494042797  0.18541772779589571  1.0000
  C   C965      1.0  0.5231320553834169  0.8132147629291222  0.18610633631055026  1.0000
  C   C966      1.0  0.5051701500788112  0.8396860807068283  0.18093748263595064  1.0000
  C   C967      1.0  0.9762685150585962  0.8358473881725648  0.17094799633140478  1.0000
  C   C968      1.0  0.9643301934668981  0.8054683609522968  0.16736879877013147  1.0000
  C   C969      1.0  0.9812720514466732  0.778867075812272  0.17305989075486997  1.0000
  C   C970      1.0  0.51021331677186  0.7831266565589724  0.18253030948187424  1.0000
  C   C971      1.0  0.5537322985404686  0.8261443809075764  0.24032660977862674  1.0000
  C   C972      1.0  0.550442918473032  0.8437259794612015  0.26008213899645194  1.0000
  C   C973      1.0  0.5531552414917011  0.8768424395228621  0.2607256112000159  1.0000
  C   C974      1.0  0.5604395336645794  0.8919680672234955  0.2424025070614288  1.0000
  C   C975      1.0  0.5638406037013236  0.8745186746499104  0.22275702091609711  1.0000
  C   C976      1.0  0.5600637051319504  0.8410641962058586  0.22087509786277523  1.0000
  H   H729      1.0  0.6584117184233699  0.8864517869392389  0.11506234219503181  1.0000
  H   H730      1.0  0.5995529145033727  0.8141083673802212  0.1216813397486778  1.0000
  H   H731      1.0  0.6352606108159841  0.7742816785700788  0.12657228803681064  1.0000
  H   H732      1.0  0.695069645609728  0.8468206040011017  0.12226829830653746  1.0000
  H   H733      1.0  0.5629246835444799  0.8357344379761414  0.09232800295891085  1.0000
  H   H734      1.0  0.5280809029319243  0.8408596896982337  0.05285312817760576  1.0000
  H   H735      1.0  0.5605771971689416  0.9327481278349675  0.04517137566282716  1.0000
  H   H736      1.0  0.5943738337339675  0.9304782130920809  0.08643305151953601  1.0000
  H   H737      1.0  0.629985712223511  0.8644639670585179  0.17103752289885715  1.0000
  H   H738      1.0  0.6118377729397321  0.8413345179973261  0.20043692856812562  1.0000
  H   H739      1.0  0.5280649275101522  0.8405341223661593  0.14543497625798055  1.0000
  H   H740      1.0  0.5446723567806053  0.8716447314167394  0.12023884293060132  1.0000
  H   H741      1.0  0.6339530687339964  0.755634589741189  0.24373048447863915  1.0000
  H   H742      1.0  0.6041086707985631  0.8024291840960307  0.23842976563072943  1.0000
  H   H743      1.0  0.55670637289076  0.7711659920798077  0.164858324607821  1.0000
  H   H744      1.0  0.583957969117186  0.722403612532477  0.17023122425073917  1.0000
  H   H745      1.0  0.5136339996506175  0.8640090351887708  0.18140190170460987  1.0000
  H   H746      1.0  0.9631223269787024  0.8567430994056191  0.16707559926172494  1.0000
  H   H747      1.0  0.9726139179759009  0.7547960198525371  0.17025323286523786  1.0000
  H   H748      1.0  0.5225091124410256  0.7607081702543742  0.1868027783998569  1.0000
  H   H749      1.0  0.5510579152121088  0.8000956872567886  0.24013823095961234  1.0000
  H   H750      1.0  0.5448285348645779  0.8313695951227551  0.274203089875243  1.0000
  H   H751      1.0  0.561835030292454  0.9176232783114872  0.2432735259572676  1.0000
  H   H752      1.0  0.5642085115677181  0.8881661590896154  0.20691827902431353  1.0000
  C   C977      1.0  0.690637691616604  0.4911342126457461  0.38071359322806836  1.0000
  C   C978      1.0  0.7147821202721416  0.4798988915976634  0.3979940858831997  1.0000
  C   C979      1.0  0.7158674019930976  0.44882299839976225  0.40677515004082065  1.0000
  C   C980      1.0  0.6921729150533613  0.42812657690439965  0.39890240751547695  1.0000
  C   C981      1.0  0.6677062458411414  0.4402702459808602  0.3821758604964573  1.0000
  C   C982      1.0  0.6672491308656749  0.4710794915176565  0.3728259296081493  1.0000
  H   H753      1.0  0.733532149084939  0.4957725993850742  0.40480183528322444  1.0000
  H   H754      1.0  0.7360086773665222  0.44013803859562844  0.4191223558019614  1.0000
  H   H755      1.0  0.6488198036322861  0.4261373144787289  0.37376036315593353  1.0000
  H   H756      1.0  0.6478839575328171  0.4783279071032032  0.3585110044998781  1.0000
  C   C983      1.0  0.648107942713558  0.38276417311878363  0.41071991441919115  1.0000
  C   C984      1.0  0.667578070050808  0.3715520995982887  0.40026768766912574  1.0000
  C   C985      1.0  0.6624603926406465  0.3411059601577892  0.38842033857626074  1.0000
  C   C986      1.0  0.6375866608847293  0.32456832659983675  0.38473296307931587  1.0000
  C   C987      1.0  0.6176709039633632  0.3376484717184691  0.3936856198245539  1.0000
  C   C988      1.0  0.6228352699909299  0.3668569469604247  0.4065457382117239  1.0000
  C   C989      1.0  0.695635377755869  0.3906164199679887  0.40385621091450863  1.0000
  C   C990      1.0  0.7139381220314346  0.3810891577340765  0.4318220724224459  1.0000
  C   C991      1.0  0.7239463448810005  0.34957828024914583  0.43660055296021666  1.0000
  C   C992      1.0  0.7408131513840546  0.34085350800358133  0.4596872165419992  1.0000
  C   C993      1.0  0.7468490962302529  0.3624388761973674  0.47916670551017954  1.0000
  C   C994      1.0  0.7356828904107738  0.3931012464615171  0.47579640327296197  1.0000
  C   C995      1.0  0.7187907011549125  0.40234067602015383  0.4523106004112875  1.0000
  C   C996      1.0  0.6952248682759065  0.3829420798344412  0.3587422814657968  1.0000
  C   C997      1.0  0.7075245212537296  0.3754964027286511  0.34142821634787085  1.0000
  C   C998      1.0  0.7347887844909599  0.3653260092924384  0.34811100158082664  1.0000
  C   C999      1.0  0.7506040404202855  0.3654893394091384  0.3732213386143973  1.0000
  C   C1000     1.0  0.7386119050930099  0.37422358455035526  0.39065663762574837  1.0000
  C   C1001     1.0  0.7102879453167923  0.38123081898557154  0.38395706616139524  1.0000
  C   C1002     1.0  0.7461159610138965  0.35063441146135726  0.32725877191170977  1.0000
  C   C1003     1.0  0.6882178650497419  0.26672380978507415  0.3024860246429074  1.0000
  C   C1004     1.0  0.6869542111531954  0.2915844704521443  0.28650366721583564  1.0000
  C   C1005     1.0  0.7052658126796922  0.3184110963980503  0.2937777008213415  1.0000
  C   C1006     1.0  0.7254262303154074  0.32020021605204363  0.3171777073892074  1.0000
  C   C1007     1.0  0.7262303474040097  0.294850531528012  0.33317498591085454  1.0000
  C   C1008     1.0  0.7073612028090875  0.26902274279549115  0.32577039272781394  1.0000
  C   C1009     1.0  0.7799868662581287  0.3425336063367213  0.33755432716873346  1.0000
  C   C1010     1.0  0.8003510519351208  0.3666937728160194  0.34700497544542536  1.0000
  C   C1011     1.0  0.8282057431826191  0.35917358418711454  0.35847556690026156  1.0000
  C   C1012     1.0  0.8374194674720362  0.32752427844869203  0.3596319517298548  1.0000
  C   C1013     1.0  0.8174212499657448  0.3043839008968082  0.3471206139283847  1.0000
  C   C1014     1.0  0.7896086993617071  0.3116213847759394  0.3364538964437979  1.0000
  C   C1015     1.0  0.7529379522290671  0.3638245578584777  0.2856494345513942  1.0000
  C   C1016     1.0  0.752516332864699  0.38351216912024844  0.26650753534798216  1.0000
  C   C1017     1.0  0.7428288962801785  0.414776405061584  0.26550036146414285  1.0000
  C   C1018     1.0  0.7334963285317304  0.426063372192203  0.2843065360396085  1.0000
  C   C1019     1.0  0.735625447204917  0.40708271291475645  0.3044201715272432  1.0000
  C   C1020     1.0  0.744341029329344  0.3746973797853401  0.3051718216664787  1.0000
  H   H757      1.0  0.6518805088819946  0.40531882337615693  0.42119825308476344  1.0000
  H   H758      1.0  0.6780417892716808  0.3296020980148869  0.3822616567902658  1.0000
  H   H759      1.0  0.6335169849588101  0.3017521387509645  0.37447284542190873  1.0000
  H   H760      1.0  0.6083490393202393  0.37797977290150986  0.4143886385479168  1.0000
  H   H761      1.0  0.7211358541890756  0.3320181000275517  0.4220767325278899  1.0000
  H   H762      1.0  0.7500387297223033  0.3173426884197546  0.4619943907907199  1.0000
  H   H763      1.0  0.7402501137295944  0.40982222388342543  0.4910793343918119  1.0000
  H   H764      1.0  0.7093143062367963  0.42616532664249923  0.44961361256678456  1.0000
  H   H765      1.0  0.6722179770914213  0.3873088659179728  0.3533501709136128  1.0000
  H   H766      1.0  0.6934644298147259  0.37396810326556335  0.3224653702793636  1.0000
  H   H767      1.0  0.7727131322172227  0.3588403292319756  0.38012047971869634  1.0000
  H   H768      1.0  0.7521683192154979  0.3751198165157132  0.4099160404489416  1.0000
  H   H769      1.0  0.6733514652904543  0.2894906134849701  0.26716033323565574  1.0000
  H   H770      1.0  0.703003772109597  0.3376915076077717  0.2809399640760346  1.0000
  H   H771      1.0  0.741008709500632  0.2956654431208711  0.35168646886845606  1.0000
  H   H772      1.0  0.7089561542758764  0.24984556153133752  0.33902592012123195  1.0000
  H   H773      1.0  0.7931704790480318  0.3914558774987072  0.3472716900109606  1.0000
  H   H774      1.0  0.8428366041449317  0.3782831744925332  0.36728460811021135  1.0000
  H   H775      1.0  0.823493038353468  0.27976360954262414  0.3447649461222939  1.0000
  H   H776      1.0  0.7750402389072595  0.29170996027644935  0.3280794321133566  1.0000
  H   H777      1.0  0.7609899039017409  0.3396262926212917  0.28613810039873844  1.0000
  H   H778      1.0  0.760100393804469  0.3728364056298996  0.2526756806765894  1.0000
  H   H779      1.0  0.7255761716381866  0.4499546316023666  0.2843363782287593  1.0000
  H   H780      1.0  0.7313674782026699  0.4184489805168218  0.31980568517129915  1.0000
  C   C1021     1.0  0.8886663786863981  0.4974459072696288  0.11978990449756406  1.0000
  C   C1022     1.0  0.8636847141015729  0.48665754820114415  0.10209926825529157  1.0000
  C   C1023     1.0  0.8579193397458081  0.45432970716346543  0.09843837770121798  1.0000
  C   C1024     1.0  0.8774482660686315  0.43145498194107057  0.11062797940090612  1.0000
  C   C1025     1.0  0.9023366096946849  0.4427503616542204  0.12826303456588528  1.0000
  C   C1026     1.0  0.9083836852868442  0.4747755986397008  0.1325711275971667  1.0000
  H   H781      1.0  0.8485450853120501  0.5041458608032521  0.09121097251626023  1.0000
  H   H782      1.0  0.8370896863381495  0.4467711548928155  0.08604323792375378  1.0000
  H   H783      1.0  0.9182638760925298  0.4261407491672611  0.13855504606294733  1.0000
  H   H784      1.0  0.9281611285421861  0.48267333034059434  0.14623866371454786  1.0000
  C   C1027     1.0  0.9214946229187686  0.37513242393684554  0.11043102095251088  1.0000
  C   C1028     1.0  0.8957263176381068  0.3686501196234231  0.11412678956515444  1.0000
  C   C1029     1.0  0.8924954413801768  0.3382703879551396  0.12328069457347814  1.0000
  C   C1030     1.0  0.9131097867670136  0.316156081047724  0.12815653525335338  1.0000
  C   C1031     1.0  0.9392335455866472  0.32299087437352497  0.12633485611937964  1.0000
  C   C1032     1.0  0.9429963013675561  0.3532452551658422  0.11762559972940279  1.0000
  C   C1033     1.0  0.8694847353170986  0.393799611813229  0.10644727521456215  1.0000
  C   C1034     1.0  0.852948780112325  0.3808436426436049  0.07831019414637223  1.0000
  C   C1035     1.0  0.8384641492486384  0.35153718773869913  0.07448890182561314  1.0000
  C   C1036     1.0  0.8221571380024967  0.3412061486241124  0.05167604032928916  1.0000
  C   C1037     1.0  0.8194818685052905  0.3595197460209784  0.031119248332765134  1.0000
  C   C1038     1.0  0.8358725231510102  0.38772724548345266  0.03398615014174542  1.0000
  C   C1039     1.0  0.852932889559015  0.3979652294423957  0.0572667879530081  1.0000
  C   C1040     1.0  0.8650765734360967  0.39095221741382397  0.15016832048466078  1.0000
  C   C1041     1.0  0.8502292173442695  0.3826336943257633  0.16564765051085947  1.0000
  C   C1042     1.0  0.82197817395724  0.37324384560026075  0.15625239679777878  1.0000
  C   C1043     1.0  0.8081735591854828  0.3800051381878655  0.13145073990823658  1.0000
  C   C1044     1.0  0.8230058953770474  0.3895099743550911  0.116220592161447  1.0000
  C   C1045     1.0  0.8519877301547532  0.39221598164041266  0.12469465479817915  1.0000
  C   C1046     1.0  0.8078971580780574  0.352013812948809  0.1729526453876093  1.0000
  C   C1047     1.0  0.8774759181405632  0.3013985938348514  0.2278134068403347  1.0000
  C   C1048     1.0  0.8555018522209287  0.3144576049637525  0.2343768233166873  1.0000
  C   C1049     1.0  0.8334057447132162  0.3303108553105806  0.21777151019109273  1.0000
  C   C1050     1.0  0.8317638066672983  0.3316743540908345  0.19266303829434397  1.0000
  C   C1051     1.0  0.8521874531100605  0.314380342174838  0.1854251883431834  1.0000
  C   C1052     1.0  0.8754313835525952  0.3005211190719505  0.20307982744479275  1.0000
  C   C1053     1.0  0.7836489193574417  0.32661681905160284  0.15596591178193117  1.0000
  C   C1054     1.0  0.7576022872383061  0.33864710351776506  0.13989216265058507  1.0000
  C   C1055     1.0  0.734512817524346  0.3180054391831945  0.12894399601956993  1.0000
  C   C1056     1.0  0.736213815220268  0.2855159312728939  0.1335227204037126  1.0000
  C   C1057     1.0  0.7614149445555134  0.273356043065746  0.14764945320665163  1.0000
  C   C1058     1.0  0.7843235169283737  0.29329389443918247  0.15899302884391472  1.0000
  C   C1059     1.0  0.7694071704570258  0.36981893999960214  0.19378771579796447  1.0000
  C   C1060     1.0  0.7598672496265595  0.3903371164250002  0.20835256924037354  1.0000
  C   C1061     1.0  0.7742585489573993  0.41802805114927605  0.21900250049356293  1.0000
  C   C1062     1.0  0.7985925538270503  0.4254458215189073  0.21410278606236707  1.0000
  C   C1063     1.0  0.8074572761682913  0.4060924749583605  0.19816705705584342  1.0000
  C   C1064     1.0  0.7934306962625144  0.3774669244570841  0.1876831229798053  1.0000
  H   H785      1.0  0.9241545488719669  0.3977594898309316  0.10226638451453601  1.0000
  H   H786      1.0  0.8724707216852786  0.33110460031487354  0.12534465498061986  1.0000
  H   H787      1.0  0.9096962577209966  0.2937386553659075  0.13571929203889319  1.0000
  H   H788      1.0  0.9628142816036576  0.35904486319087286  0.11565116588971341  1.0000
  H   H789      1.0  0.8388410851387477  0.33731443655593796  0.09030097226084322  1.0000
  H   H790      1.0  0.8088215717638317  0.3202510416748926  0.04849784718472966  1.0000
  H   H791      1.0  0.8355074673382239  0.40185916508934943  0.017998327863785406  1.0000
  H   H792      1.0  0.8645980618295287  0.4209965672761711  0.0600715807058183  1.0000
  H   H793      1.0  0.8878624042709864  0.3950345387845441  0.15799891091782897  1.0000
  H   H794      1.0  0.8627076454906549  0.37998948599148813  0.18519633605513328  1.0000
  H   H795      1.0  0.7863468169310315  0.37582236193910484  0.12266706455906493  1.0000
  H   H796      1.0  0.8112982661430583  0.3916778160758652  0.09649005577703557  1.0000
  H   H797      1.0  0.8560773885685706  0.3141789761190405  0.2532258960390572  1.0000
  H   H798      1.0  0.8186276776848338  0.34102992642259805  0.22585501317731388  1.0000
  H   H799      1.0  0.8505588406216881  0.31308016235737157  0.16562135208167034  1.0000
  H   H800      1.0  0.8915085248204982  0.2899525106444293  0.19677379984986573  1.0000
  H   H801      1.0  0.7547975621316393  0.36420500002253015  0.13820141612151043  1.0000
  H   H802      1.0  0.7142203943135496  0.3269841101820482  0.11816947362667599  1.0000
  H   H803      1.0  0.7632517002420425  0.24718139479708506  0.14997117552258335  1.0000
  H   H804      1.0  0.803020949678389  0.2815474249116678  0.169973275828267  1.0000
  H   H805      1.0  0.7587535622108804  0.3466960379577436  0.18759732668599677  1.0000
  H   H806      1.0  0.7401950311116636  0.38475182069188363  0.21071196732010816  1.0000
  H   H807      1.0  0.8111745261939717  0.4470924919274572  0.22262086592809666  1.0000
  H   H808      1.0  0.8267279496314798  0.4129388537911427  0.19611727168854828  1.0000
  C   C1065     1.0  0.5616956602916893  0.26788252467131435  0.38241832828330746  1.0000
  C   C1066     1.0  0.5358223969387461  0.28091863269202316  0.3696067034535075  1.0000
  C   C1067     1.0  0.5142728193929085  0.2616053442867196  0.35441702917575363  1.0000
  C   C1068     1.0  0.5178061685113869  0.22787688364197764  0.3531617920945984  1.0000
  C   C1069     1.0  0.5437352468305509  0.2151977320234721  0.36691531101947034  1.0000
  C   C1070     1.0  0.5653887604328337  0.23535730842608402  0.38070986295442455  1.0000
  H   H809      1.0  0.5319901899382792  0.3057146133610544  0.37100555606995095  1.0000
  H   H810      1.0  0.9947199504496371  0.272349531550416  0.34282893410113624  1.0000
  H   H811      1.0  0.5482466132159707  0.18973555736349879  0.3663669607938245  1.0000
  H   H812      1.0  0.5854093820161169  0.22473922538720964  0.3906920752253649  1.0000
  C   C1071     1.0  0.5205421992808763  0.1692093024010732  0.31663495257402735  1.0000
  C   C1072     1.0  0.9992813471023774  0.17251585967925237  0.3272848838272167  1.0000
  C   C1073     1.0  0.9800979790188585  0.1471310485643221  0.32349306066824407  1.0000
  C   C1074     1.0  0.9813272728706637  0.12080379032524201  0.30872677244906704  1.0000
  C   C1075     1.0  0.5022021971340527  0.11818152429343928  0.2982726805621798  1.0000
  C   C1076     1.0  0.5221315442577148  0.1423729116140468  0.30245058704329086  1.0000
  C   C1077     1.0  0.9923540879285124  0.20556632652710513  0.33792362425947453  1.0000
  C   C1078     1.0  0.9732718337965537  0.221247814401557  0.3121940618010249  1.0000
  C   C1079     1.0  0.9448065522893034  0.21297880932676602  0.3013464260447115  1.0000
  C   C1080     1.0  0.927759704814401  0.2245498609914414  0.278655171469177  1.0000
  C   C1081     1.0  0.9395568339706312  0.2447345359655592  0.2661102612049122  1.0000
  C   C1082     1.0  0.968046979720348  0.2515956971217285  0.27515617479124643  1.0000
  C   C1083     1.0  0.9850702939051046  0.23992756647706706  0.2977299257469997  1.0000
  C   C1084     1.0  0.9907181834988992  0.17950550999272924  0.3793333919798442  1.0000
  C   C1085     1.0  0.9807198169441719  0.17945880214341084  0.3992381321434234  1.0000
  C   C1086     1.0  0.9587744993313666  0.19910400285427346  0.3998927951679189  1.0000
  C   C1087     1.0  0.9456709736034381  0.21683572887707797  0.3789249270158427  1.0000
  C   C1088     1.0  0.9569097508550606  0.21997632641460202  0.36054027336213207  1.0000
  C   C1089     1.0  0.9790650576163041  0.20109227364803192  0.35964314255078633  1.0000
  C   C1090     1.0  0.9450093340406851  0.19689709772816888  0.42134373375687356  1.0000
  C   C1091     1.0  0.9073790602190515  0.09958236509657231  0.3977441575490618  1.0000
  C   C1092     1.0  0.9320419096881248  0.10351226791913955  0.41701102091954273  1.0000
  C   C1093     1.0  0.9429557881495683  0.13392176563387606  0.4254488999019297  1.0000
  C   C1094     1.0  0.9297727896365366  0.16166152411943485  0.41481762001695943  1.0000
  C   C1095     1.0  0.905373016105021  0.15709565107282564  0.3946349744669135  1.0000
  C   C1096     1.0  0.8929954376909103  0.12678820198832  0.38709049602222856  1.0000
  C   C1097     1.0  0.9256848628925332  0.22742411023740894  0.421455641966189  1.0000
  C   C1098     1.0  0.9367440318794619  0.258202829453382  0.4216570767429569  1.0000
  C   C1099     1.0  0.9194258445484781  0.2842131283194856  0.4154088683895096  1.0000
  C   C1100     1.0  0.8907942584101032  0.280653507759548  0.4116655387879069  1.0000
  C   C1101     1.0  0.8802083812559546  0.25085256949537144  0.41525965744375554  1.0000
  C   C1102     1.0  0.8979508935997542  0.2246273298035422  0.42077859729983036  1.0000
  C   C1103     1.0  0.955842641160832  0.18912655764236866  0.46775206816000114  1.0000
  C   C1104     1.0  0.9725978181395891  0.19052185484063397  0.4922711568210217  1.0000
  C   C1105     1.0  0.999568862022316  0.20170141165306876  0.49857718441594884  1.0000
  C   C1106     1.0  0.5095966303127111  0.21280074640711463  0.480714769072377  1.0000
  C   C1107     1.0  0.9933493236905933  0.21180211154855766  0.455882337425273  1.0000
  C   C1108     1.0  0.9662516252767138  0.19879490881475495  0.44911189076168684  1.0000
  H   H813      1.0  0.5354379633254683  0.18895288837168148  0.3179200318443334  1.0000
  H   H814      1.0  0.9628110821613992  0.1484791557248875  0.3309666639136959  1.0000
  H   H815      1.0  0.9653586956586313  0.10171953507475734  0.305242696865712  1.0000
  H   H816      1.0  0.5384600915197562  0.14218927094955247  0.29424025475317883  1.0000
  H   H817      1.0  0.9355788688528356  0.1952612579853848  0.31030094792677143  1.0000
  H   H818      1.0  0.9052377687542976  0.2190564576766138  0.2716702340710694  1.0000
  H   H819      1.0  0.9772837108572949  0.26764215880939457  0.26471700399893455  1.0000
  H   H820      1.0  0.5069798395501579  0.2465226304185292  0.3039203148589674  1.0000
  H   H821      1.0  0.5073825217282413  0.163244950564668  0.37924759568603567  1.0000
  H   H822      1.0  0.9891153998087662  0.16154542028568228  0.4139950946784907  1.0000
  H   H823      1.0  0.9254622100601964  0.22773888207966275  0.37613654746706543  1.0000
  H   H824      1.0  0.9460296125037249  0.2353152010162538  0.3444273563575256  1.0000
  H   H825      1.0  0.9436822613891771  0.08201362642540982  0.42414330412658235  1.0000
  H   H826      1.0  0.9636578314295605  0.13492257814414652  0.44002867443891414  1.0000
  H   H827      1.0  0.8950530939293121  0.17719011398364423  0.38367543050128466  1.0000
  H   H828      1.0  0.873498026190669  0.12523719425756344  0.37141029076030857  1.0000
  H   H829      1.0  0.9590058837303088  0.2605155079996607  0.4234494732288264  1.0000
  H   H830      1.0  0.9290286945202105  0.30703931865808454  0.4122866293496078  1.0000
  H   H831      1.0  0.8580783036526763  0.24649203315387797  0.4119565001321271  1.0000
  H   H832      1.0  0.8893029800348632  0.20133673280887163  0.422694092815947  1.0000
  H   H833      1.0  0.933203764641768  0.18102952056035024  0.46244948417526954  1.0000
  H   H834      1.0  0.9641813549903882  0.18207224033999342  0.006255952711812341  1.0000
  H   H835      1.0  0.530919147416064  0.22178205885848362  0.48617215941332825  1.0000
  H   H836      1.0  0.5018747611831371  0.2210753964009517  0.4426753035892251  1.0000
  C   C1109     1.0  0.9938224174815115  0.263606786666288  0.17365953224311872  1.0000
  C   C1110     1.0  0.5210349639779663  0.2720957065938634  0.18767752756933953  1.0000
  C   C1111     1.0  0.5401823114063898  0.24891926055358524  0.2002000561917412  1.0000
  C   C1112     1.0  0.5310662673474208  0.21711788182977731  0.2005096689041807  1.0000
  C   C1113     1.0  0.5035174596733929  0.2085880438053132  0.18522449962114432  1.0000
  C   C1114     1.0  0.9855301484694934  0.23151756417667715  0.17241212873661557  1.0000
  H   H837      1.0  0.5292231563763916  0.29715291244776654  0.18948671028660638  1.0000
  H   H838      1.0  0.5622142693029893  0.2555249141298699  0.20916576889473268  1.0000
  H   H839      1.0  0.9950975166723844  0.18370923248957666  0.18257302111509632  1.0000
  H   H840      1.0  0.9642628427692878  0.2246781304690249  0.16145071963416474  1.0000
  C   C1115     1.0  0.5150061051248883  0.16186891965747904  0.23136835762292296  1.0000
  C   C1116     1.0  0.5376617130903467  0.1583861102221025  0.22275702091609711  1.0000
  C   C1117     1.0  0.5498750811063354  0.12791855801609783  0.22357581598092202  1.0000
  C   C1118     1.0  0.5418122858747303  0.10347257287576014  0.2358390905850762  1.0000
  C   C1119     1.0  0.5211233999103636  0.1088780661031149  0.24624095864094958  1.0000
  C   C1120     1.0  0.5056816667145271  0.13665667985567012  0.24217309523233208  1.0000
  C   C1121     1.0  0.5521051929273222  0.18972165825738868  0.21548112217376938  1.0000
  C   C1122     1.0  0.5737875030400714  0.19966288686037428  0.24256290882811432  1.0000
  C   C1123     1.0  0.5982320505274303  0.18233124739651388  0.2526327825296852  1.0000
  C   C1124     1.0  0.6193561808476606  0.1932752189181779  0.27364727910230946  1.0000
  C   C1125     1.0  0.6172043136229133  0.22320843200702062  0.284293480081855  1.0000
  C   C1126     1.0  0.5918541572107527  0.23916293645108536  0.2756578965963442  1.0000
  C   C1127     1.0  0.5701287511048596  0.2269955084562714  0.2555330702877779  1.0000
  C   C1128     1.0  0.5539607851421694  0.1606827002205696  0.17513317684612134  1.0000
  C   C1129     1.0  0.5677957106281869  0.15236342384607549  0.15892588391832546  1.0000
  C   C1130     1.0  0.5934306436128233  0.16693785595976507  0.16066549703213454  1.0000
  C   C1131     1.0  0.6058735860538154  0.18751985725042325  0.18073119850344582  1.0000
  C   C1132     1.0  0.5922952461237294  0.19598634759710362  0.19722516296077147  1.0000
  C   C1133     1.0  0.5665821380678712  0.18187186097966626  0.19513061430975018  1.0000
  C   C1134     1.0  0.6068988568672827  0.16133544321247847  0.13885924987860324  1.0000
  C   C1135     1.0  0.6419374631016174  0.06394852882928546  0.15849578336718964  1.0000
  C   C1136     1.0  0.6164220188951692  0.06754718538839011  0.13987817412442063  1.0000
  C   C1137     1.0  0.6054859472688949  0.09811030009511064  0.1331099656250207  1.0000
  C   C1138     1.0  0.6193170473386825  0.12597943025211356  0.14588055744473832  1.0000
  C   C1139     1.0  0.6437017487563005  0.12131490844515158  0.16640303092373895  1.0000
  C   C1140     1.0  0.6552343550065793  0.09120393185240644  0.17206372117828006  1.0000
  C   C1141     1.0  0.6297805042551687  0.18894295402875336  0.13770323807637436  1.0000
  C   C1142     1.0  0.6244495065850462  0.22188462470618717  0.1393723490183147  1.0000
  C   C1143     1.0  0.6457410458263251  0.24428288020801447  0.14115448725166363  1.0000
  C   C1144     1.0  0.6712050321043281  0.23475330002773642  0.13908138767409445  1.0000
  C   C1145     1.0  0.6753074780573695  0.20282340329424106  0.13511629330436495  1.0000
  C   C1146     1.0  0.654420304176739  0.18033905976154738  0.13346713932641927  1.0000
  C   C1147     1.0  0.5886602544316148  0.150079576445958  0.0906723210020884  1.0000
  C   C1148     1.0  0.5685157512752994  0.15128648833858  0.06732714945678712  1.0000
  C   C1149     1.0  0.5438946148531559  0.16778996006865388  0.06379476682974415  1.0000
  C   C1150     1.0  0.5398374959460173  0.1833870714382461  0.08367973654301093  1.0000
  C   C1151     1.0  0.5600415064093456  0.18214819974512209  0.10679904001917713  1.0000
  C   C1152     1.0  0.5842842968225067  0.16426207161989836  0.11129252765055785  1.0000
  H   H841      1.0  0.5053723925768981  0.1848029656173587  0.2307192900088932  1.0000
  H   H842      1.0  0.5678691205660813  0.12415096532027736  0.21706089306193946  1.0000
  H   H843      1.0  0.553052293951929  0.08085674639066052  0.23864985177571651  1.0000
  H   H844      1.0  0.9887109896952384  0.14026233376100725  0.2497138434033732  1.0000
  H   H845      1.0  0.601328070994422  0.159501728751868  0.24342833231348734  1.0000
  H   H846      1.0  0.6390358808383617  0.18022218867939066  0.2793676537351522  1.0000
  H   H847      1.0  0.5874827868062693  0.26191297373578476  0.28433824336558117  1.0000
  H   H848      1.0  0.5514896698927574  0.2408765838422102  0.2480967697787646  1.0000
  H   H849      1.0  0.5336726598949222  0.14928650461521698  0.1722852994327247  1.0000
  H   H850      1.0  0.5582443330284703  0.13510554358086066  0.14395144642982172  1.0000
  H   H851      1.0  0.6267787335029266  0.19825847959810147  0.18365424093076602  1.0000
  H   H852      1.0  0.6033138689763952  0.21327287195008024  0.21186089160241375  1.0000
  H   H853      1.0  0.605807163090369  0.0471878692872739  0.12818656395618636  1.0000
  H   H854      1.0  0.5860045390434622  0.1004004801714357  0.11766476760266319  1.0000
  H   H855      1.0  0.6547306526917943  0.1420873062158636  0.17752446876551084  1.0000
  H   H856      1.0  0.6747077980544425  0.08947634086235767  0.1882277429318073  1.0000
  H   H857      1.0  0.6053539171148034  0.23150810179352863  0.1415903697269474  1.0000
  H   H858      1.0  0.641755557745855  0.2695946945506174  0.14367652526227004  1.0000
  H   H859      1.0  0.6963092705485646  0.19537005097687726  0.13547551865626764  1.0000
  H   H860      1.0  0.6580790396986678  0.15522565044257564  0.12990845827018713  1.0000
  H   H861      1.0  0.6082621927556296  0.13692111985417937  0.09324658284370872  1.0000
  H   H862      1.0  0.5727608778823265  0.14042085036794216  0.05118905310508465  1.0000
  H   H863      1.0  0.521251018845758  0.1969833783321659  0.08163498704513501  1.0000
  H   H864      1.0  0.5549335247656438  0.19406213786118026  0.12212001992919445  1.0000
  C   C1153     1.0  0.5190740359901471  0.20219471168270703  0.025907683024943458  1.0000
  C   C1154     1.0  0.5214187733681496  0.16860195873586387  0.03844755741978902  1.0000
  H   H865      1.0  0.5403788346721643  0.21151641895878112  0.028655589104684954  1.0000
  H   H866      1.0  0.5108401634831846  0.22003646301429394  0.036058876691950216  1.0000
  H   H867      1.0  0.5007317168370176  0.1622384659907331  0.04022503281108316  1.0000
  H   H868      1.0  0.5250421991497586  0.1496145194398791  0.02625198728227074  1.0000
  C   C1155     1.0  0.5203716242343257  0.08411771865867254  0.2655246082428279  1.0000
  C   C1156     1.0  0.9998166799888814  0.08823126650305786  0.28102762550666505  1.0000
  H   H869      1.0  0.5164429776724153  0.05957719685718028  0.2569916072825229  1.0000
  H   H870      1.0  0.5412984660961202  0.08292991785448617  0.2793601931878645  1.0000
  H   H871      1.0  0.9778753113218068  0.08650074722482916  0.2679567466586176  1.0000
  H   H872      1.0  0.502718412521901  0.06657707785630974  0.29304283691350325  1.0000
  C   C1157     1.0  0.7104387568323696  0.26219482761319657  0.12458423869832122  1.0000
  C   C1158     1.0  0.6964659706634899  0.2590102413858862  0.14512629611395203  1.0000
  H   H873      1.0  0.6949310637794257  0.2705352378175487  0.10783176627747677  1.0000
  H   H874      1.0  0.7177515993971415  0.2379488846790826  0.12013626040539549  1.0000
  H   H875      1.0  0.7120226053954293  0.25214832695364225  0.16266399113682672  1.0000
  H   H876      1.0  0.6897167099285655  0.28282639978385227  0.15011665619469342  1.0000
  C   C1159     1.0  0.9714889063650741  0.29039669449574246  0.1632802323427906  1.0000
  C   C1160     1.0  0.9629178635143409  0.2974685035722598  0.13515769934181168  1.0000
  H   H877      1.0  0.97873967079802  0.3124494339948771  0.17396354954509244  1.0000
  H   H878      1.0  0.9515347954166571  0.2836073880011658  0.1678488849880949  1.0000
  H   H879      1.0  0.9579864099104518  0.2745770431899137  0.12496416706894727  1.0000
  H   H880      1.0  0.9821121174496313  0.304544930262555  0.13062280567298426  1.0000
  C   C1161     1.0  0.9028907148058257  0.289015370164207  0.24908529229438456  1.0000
  C   C1162     1.0  0.920314900202879  0.2606935592525332  0.2429471270134308  1.0000
  H   H881      1.0  0.9171732032649137  0.31060023673965453  0.2570009329666325  1.0000
  H   H882      1.0  0.8954696930743433  0.28237519234791253  0.26524110744589535  1.0000
  H   H883      1.0  0.9335434426523654  0.27023311585900833  0.23220393891914518  1.0000
  H   H884      1.0  0.9057605086568108  0.24333845995610176  0.23035931860226175  1.0000
  C   C1163     1.0  0.5883995808841535  0.32189726960184833  0.38635003670392454  1.0000
  C   C1164     1.0  0.5861094739408527  0.28993143745960726  0.3986580745918048  1.0000
  H   H885      1.0  0.5810686729613471  0.31692927470259036  0.36644156626670144  1.0000
  H   H886      1.0  0.5732031478786124  0.3391331638695048  0.3892671106934145  1.0000
  H   H887      1.0  0.5845045512386129  0.29410523373766856  0.41731130794787263  1.0000
  H   H888      1.0  0.6058075802052076  0.2766041554035952  0.4011144597862795  1.0000
  C   C1165     1.0  0.8676392987313825  0.31784732633035856  0.37415204188853773  1.0000
  C   C1166     1.0  0.869981975992564  0.30814505172191226  0.4006854783172369  1.0000
  H   H889      1.0  0.8720633530828311  0.29633724471815664  0.364029944355953  1.0000
  H   H890      1.0  0.8820867946909939  0.3377818682442301  0.37314113773105456  1.0000
  H   H891      1.0  0.8746506417225222  0.3299239689442279  0.4132826124125155  1.0000
  H   H892      1.0  0.8483382255308906  0.3003338600223551  0.39982191996868577  1.0000
  C   C1167     1.0  0.6432685317562936  0.2388248632115272  0.30380094610236424  1.0000
  C   C1168     1.0  0.6695996529054311  0.23693808483963014  0.29460022615981024  1.0000
  H   H893      1.0  0.6382784163290872  0.26410908857945925  0.3063170156751405  1.0000
  H   H894      1.0  0.6481400173674501  0.2267267825242383  0.3219878952529509  1.0000
  H   H895      1.0  0.6621711755259477  0.2353834774522216  0.27369204238603567  1.0000
  H   H896      1.0  0.6814622087440401  0.21490344557123123  0.3007495822616956  1.0000
  C   C1169     1.0  0.766728520339798  0.35249514374375546  0.005017501862054297  1.0000
  C   C1170     1.0  0.7980721425800761  0.35078382052395846  0.005573312634987836  1.0000
  H   H897      1.0  0.7597424018971684  0.32926164143380626  0.009764275073852356  1.0000
  H   H898      1.0  0.7650530417433515  0.3698191721428775  0.019848226517874868  1.0000
  H   H899      1.0  0.8006119457814137  0.36734288696197864  0.4911110417177846  1.0000
  H   H900      1.0  0.8023973067266085  0.32627873463442847  0.499783927939734  1.0000
  C   C1171     1.0  0.7378621865964886  0.4352672124189629  0.2419250320350161  1.0000
  C   C1172     1.0  0.7659783070530154  0.44189576956602195  0.23683693878480586  1.0000
  H   H901      1.0  0.7207249837239527  0.42561085800969484  0.22530479781484614  1.0000
  H   H902      1.0  0.7283222904524085  0.4579905437748115  0.24592761565486626  1.0000
  H   H903      1.0  0.7842161976877308  0.44460369614768985  0.2545781202349525  1.0000
  H   H904      1.0  0.7636204577320237  0.4662979712897319  0.2287068073780366  1.0000
  C   C1173     1.0  0.6388829316015613  0.0073958942935596905  0.17521953268097645  1.0000
  C   C1174     1.0  0.6539793910944169  0.03004528493069127  0.16258136557561548  1.0000
  H   H905      1.0  0.6210197012969414  0.020296242119711302  0.17798590361525501  1.0000
  H   H906      1.0  0.6534396747364537  0.002938398864180459  0.19461024113643324  1.0000
  H   H907      1.0  0.6531127349459017  0.018820115107955972  0.14436326864010268  1.0000
  H   H908      1.0  0.6768325901478563  0.03139896610763518  0.17192551453977545  1.0000
  C   C1175     1.0  0.8843257492340545  0.044670907416947014  0.4022074299639273  1.0000
  C   C1176     1.0  0.8978857589444564  0.06583635836310817  0.3870270813702831  1.0000
  H   H909      1.0  0.8615929641342214  0.04780372183050795  0.3947263661711878  1.0000
  H   H910      1.0  0.8914334158158547  0.05350596191260933  0.4215768758596142  1.0000
  H   H911      1.0  0.8822662452724337  0.0682580663765398  0.36777513909437753  1.0000
  H   H912      1.0  0.9162990033659282  0.05398863673561117  0.3846527621959731  1.0000
  C   C1177     1.0  0.9895949432442135  0.8825095042101817  0.017940639181883277  1.0000
  C   C1178     1.0  0.5207855974863831  0.8895807388204483  0.01977250196290473  1.0000
  H   H913      1.0  0.984493543490559  0.8987301491305695  0.031490783587692514  1.0000
  H   H914      1.0  0.9872222249145081  0.8578109994393475  0.024493163259195854  1.0000
  H   H915      1.0  0.5277695678136074  0.8728016045588229  0.0077648484007493135  1.0000
  H   H916      1.0  0.5222531945452139  0.9145991847895469  0.013378910234742247  1.0000
  C   C1179     1.0  0.5458468361288389  0.8977155109042291  0.2804233211763615  1.0000
  C   C1180     1.0  0.5146051571163184  0.9091692325310657  0.27285832622663536  1.0000
  H   H917      1.0  0.5515061302076755  0.8852368458184964  0.2983379603509471  1.0000
  H   H918      1.0  0.5588055146594892  0.9203133368205528  0.2847243266877196  1.0000
  H   H919      1.0  0.502339805720669  0.8995637440416487  0.2536865848340725  1.0000
  H   H920      1.0  0.5134678531121385  0.9355979373072202  0.2709073931109023  1.0000
  C   C1181     1.0  0.8790809532596653  0.5500458948772381  0.13925409934380467  1.0000
  C   C1182     1.0  0.8956271963009358  0.5339668261547472  0.12374977648419216  1.0000
  H   H921      1.0  0.8910201478792141  0.5482257013085247  0.15958353116173607  1.0000
  H   H922      1.0  0.8595304938601089  0.5361909729090324  0.13733711171823057  1.0000
  H   H923      1.0  0.9188168664979575  0.5388450940978264  0.13288670874743633  1.0000
  H   H924      1.0  0.8908659741270435  0.5436061929445092  0.10522579710988375  1.0000
  C   C1183     1.0  0.6922088366959698  0.7685391423762398  0.15891114933743228  1.0000
  C   C1184     1.0  0.6914350079144149  0.7838997714290049  0.13420909075418086  1.0000
  H   H925      1.0  0.6911306372784812  0.786114516648527  0.17309980468285918  1.0000
  H   H926      1.0  0.6731434943182372  0.7529044460372113  0.1567531860344655  1.0000
  H   H927      1.0  0.6901928905087756  0.7656974789137058  0.1193338785446035  1.0000
  H   H928      1.0  0.7117012576729229  0.7957853849903401  0.13629543280318568  1.0000
  C   C1185     1.0  0.9323042248473876  0.8014727497971283  0.1554130852279127  1.0000
  C   C1186     1.0  0.9229604959429821  0.7903275230776448  0.12743043748857813  1.0000
  H   H929      1.0  0.9215650733192502  0.8244854895395956  0.15746156499943248  1.0000
  H   H930      1.0  0.9248193971990347  0.7838264147610815  0.16614508250126678  1.0000
  H   H931      1.0  0.9419845816939494  0.7824024706776169  0.12309623254178978  1.0000
  H   H932      1.0  0.9153134183863689  0.811418131939547  0.11572316017103972  1.0000
  C   C1187     1.0  0.8520205513492876  0.765610673442177  0.3001657944364332  1.0000
  C   C1188     1.0  0.880884266950376  0.7534205865143594  0.31787340342378523  1.0000
  H   H933      1.0  0.8542718005558362  0.7909097680120187  0.29494714160868823  1.0000
  H   H934      1.0  0.8370585655124496  0.7681723561092975  0.3108679495206365  1.0000
  H   H935      1.0  0.879271155307848  0.7423799015510197  0.33475102652538086  1.0000
  H   H936      1.0  0.8892461790027786  0.733561005259154  0.3089599145518076  1.0000
  C   C1189     1.0  0.6883513506283951  0.5262637476816773  0.37169752183088495  1.0000
  C   C1190     1.0  0.6694120820047098  0.5456456228395058  0.38350756818731147  1.0000
  H   H937      1.0  0.7099908478015031  0.5376575140560854  0.3758418558492014  1.0000
  H   H938      1.0  0.6786576315356239  0.5261730375570443  0.35090684167689157  1.0000
  H   H939      1.0  0.6716785879237712  0.5381200941309939  0.4028285205256282  1.0000
  H   H940      1.0  0.6471680366751642  0.5394887649428983  0.37213209871039343  1.0000
  C   C1191     1.0  0.5849135140463658  0.789861874208106  0.39290972290663323  1.0000
  C   C1192     1.0  0.5911013754202009  0.7708684174636924  0.371695656694063  1.0000
  H   H941      1.0  0.6017419411955569  0.8084964563424148  0.40030126013192036  1.0000
  H   H942      1.0  0.5849914131523571  0.7739195199113653  0.40846869427512816  1.0000
  H   H943      1.0  0.5935158621708718  0.7884639594795378  0.3582032569242606  1.0000
  H   H944      1.0  0.5733252369582729  0.7544267670082825  0.3620286525460279  1.0000
  C   C1193     1.0  0.8135321812322868  0.8066635164930911  0.35762319937264203  1.0000
  C   C1194     1.0  0.8247409116154883  0.80826532068534  0.3863164642411298  1.0000
  H   H945      1.0  0.8311205423897201  0.8046990513030642  0.3499985200446143  1.0000
  H   H946      1.0  0.8038832584768172  0.8293066367458743  0.35091989763464504  1.0000
  H   H947      1.0  0.8062592902350203  0.814928688868821  0.3926616597093173  1.0000
  H   H948      1.0  0.8316233384994427  0.7843915608479333  0.3949464523161749  1.0000
  C   C1195     1.0  0.6615277843910099  0.7066340467946393  0.21344439276422766  1.0000
  C   C1196     1.0  0.6285982716549336  0.7045888182499337  0.20962272741610422  1.0000
  H   H949      1.0  0.665629490462523  0.6876549644540925  0.20086964031081214  1.0000
  H   H950      1.0  0.665830104096945  0.7298930910582614  0.20561827865943214  1.0000
  H   H951      1.0  0.6250397077253719  0.6893808811855887  0.22405142587051283  1.0000
  H   H952      1.0  0.6184236692346307  0.6906461633320767  0.1923869980446991  1.0000
  C   C1197     1.0  0.7521799698908767  0.7218415453925416  0.0035328529518023895  1.0000
  C   C1198     1.0  0.7513918463344964  0.6955467025408578  0.02248963328508446  1.0000
  H   H953      1.0  0.7447557946009702  0.745077963278243  0.009428550445905957  1.0000
  H   H954      1.0  0.774642080163478  0.7267356899697496  0.00491491933684851  1.0000
  H   H955      1.0  0.7509985183503551  0.6713795174508559  0.01419584016274522  1.0000
  H   H956      1.0  0.7304042163114683  0.6958667068221  0.025185315533812067  1.0000
  C   C1199     1.0  0.8025880510545598  0.578042565914533  0.2652653542245804  1.0000
  C   C1200     1.0  0.7839511901501506  0.5759065485653102  0.28259620557390364  1.0000
  H   H957      1.0  0.8030721354991818  0.5541095080418849  0.25650294143517866  1.0000
  H   H958      1.0  0.8245067629337176  0.5838007724891152  0.27703063729728067  1.0000
  H   H959      1.0  0.7938752151561037  0.5589818005527497  0.297278562636094  1.0000
  H   H960      1.0  0.7631257575473217  0.5641708125921486  0.27128788102257484  1.0000
  C   C1201     1.0  0.7941439775273241  0.7786883415918866  0.8473071276105771  1.0000
  C   C1202     1.0  0.7657040822970462  0.7822816587614417  0.834747296251737  1.0000
  C   C1203     1.0  0.7494969691285293  0.7549640710807017  0.8250933480614553  1.0000
  C   C1204     1.0  0.761198906366716  0.7244212001560438  0.8270685279558736  1.0000
  C   C1205     1.0  0.7891521677744496  0.7211461435084316  0.8420604977305033  1.0000
  C   C1206     1.0  0.8057077402456188  0.7481115585956473  0.8508415618881242  1.0000
  H   H961      1.0  0.7553010464644491  0.8052214484254111  0.8332458611100877  1.0000
  H   H962      1.0  0.7275442648580288  0.7571205166858416  0.8159411216762713  1.0000
  H   H963      1.0  0.7986675896672587  0.6981392321626914  0.8467718333426848  1.0000
  H   H964      1.0  0.8282619253715058  0.7463091979408253  0.8607808760121602  1.0000
  C   C1207     1.0  0.7796637485198157  0.663914621718775  0.8025345182002774  1.0000
  C   C1208     1.0  0.7566526598535663  0.6621832916700129  0.8110787099815139  1.0000
  C   C1209     1.0  0.7465886304650224  0.6317929769597271  0.8137589115946195  1.0000
  C   C1210     1.0  0.7575649733119645  0.6044448025078939  0.8065408320937716  1.0000
  C   C1211     1.0  0.7781265358180314  0.606515520861495  0.7960158650076511  1.0000
  C   C1212     1.0  0.7906249413982521  0.6363033184753604  0.795842407283212  1.0000
  C   C1213     1.0  0.7413008660990504  0.6937021127771215  0.8159560427708468  1.0000
  C   C1214     1.0  0.7197311023257297  0.6973635730413115  0.7878875987377038  1.0000
  C   C1215     1.0  0.6961945939469049  0.6772011897898307  0.77897784013937  1.0000
  C   C1216     1.0  0.6781801568692478  0.6784536665193145  0.7548038017904054  1.0000
  C   C1217     1.0  0.6826711639749511  0.701145357927855  0.7394593211564318  1.0000
  C   C1218     1.0  0.7069189443917505  0.7201087684860099  0.7474663535329541  1.0000
  C   C1219     1.0  0.7256839634010487  0.7167597572976661  0.7709950545415327  1.0000
  C   C1220     1.0  0.7435234523570086  0.6793504075010577  0.8607323824547903  1.0000
  C   C1221     1.0  0.7327979703297502  0.6798650754137259  0.8799600779520108  1.0000
  C   C1222     1.0  0.7050259523439183  0.6884334817059689  0.8763920712116691  1.0000
  C   C1223     1.0  0.6892010575103593  0.698446497913554  0.8529211894445702  1.0000
  C   C1224     1.0  0.7005183695547801  0.6996422087090651  0.8343145845090505  1.0000
  C   C1225     1.0  0.7279301010344933  0.6899141825006532  0.8373510272551438  1.0000
  C   C1226     1.0  0.689681046991849  0.6859044597052838  0.8974662521625951  1.0000
  C   C1227     1.0  0.675151835857352  0.5820163828798502  0.8848486015622752  1.0000
  C   C1228     1.0  0.6991489018076446  0.5936409014191314  0.9028956654512176  1.0000
  C   C1229     1.0  0.7031348532746492  0.6262676650585594  0.9063685502136412  1.0000
  C   C1230     1.0  0.6829586092849885  0.6487257722434386  0.8931932237035658  1.0000
  C   C1231     1.0  0.6595584452254445  0.6355482033522506  0.8741650978462912  1.0000
  C   C1232     1.0  0.6552096733625308  0.6028766724803437  0.8709421414180055  1.0000
  C   C1233     1.0  0.6628213152367738  0.7086676877132639  0.8927157486771531  1.0000
  C   C1234     1.0  0.6654849582052099  0.7411798222023828  0.887452332565682  1.0000
  C   C1235     1.0  0.6430633747239637  0.7613848434092375  0.8813123021479062  1.0000
  C   C1236     1.0  0.6170352095500994  0.7497977459937941  0.8804431483888894  1.0000
  C   C1237     1.0  0.6143007922424781  0.7189424978080384  0.8877395636362584  1.0000
  C   C1238     1.0  0.6370608602599229  0.6987427135292922  0.894599536867297  1.0000
  C   C1239     1.0  0.6960801499184468  0.6862542978744806  0.9441841992781621  1.0000
  C   C1240     1.0  0.7093050796044346  0.6952779661796002  0.9691602464605541  1.0000
  C   C1241     1.0  0.7333395638244845  0.7143536094131007  0.9761265324904426  1.0000
  C   C1242     1.0  0.7437324273977235  0.7255793562812626  0.9580701429173907  1.0000
  C   C1243     1.0  0.7298287153015939  0.717301215544788  0.9332806094171909  1.0000
  C   C1244     1.0  0.7067325133206697  0.6964512302587708  0.9259487565702053  1.0000
  H   H965      1.0  0.7878651996079112  0.6868746686562919  0.7987911885986747  1.0000
  H   H966      1.0  0.7287765969372696  0.6285759960205652  0.8203167326605064  1.0000
  H   H967      1.0  0.7477999695810689  0.5816337014127881  0.8071992253919108  1.0000
  H   H968      1.0  0.8079105165277266  0.6398690727052888  0.7882867380175956  1.0000
  H   H969      1.0  0.6914132876185038  0.6591481096352392  0.7906424058236864  1.0000
  H   H970      1.0  0.6609362077212299  0.661862887590064  0.7490666409261654  1.0000
  H   H971      1.0  0.7126789631076637  0.7360012188746856  0.7349829927838128  1.0000
  H   H972      1.0  0.745349722104151  0.7304801577562348  0.7758518708258243  1.0000
  H   H973      1.0  0.7645219646782782  0.6699699570839635  0.8641530433862  1.0000
  H   H974      1.0  0.7450149736352625  0.6701278239084226  0.8975352622250062  1.0000
  H   H975      1.0  0.6669616655629903  0.7054711597333324  0.8478648035203326  1.0000
  H   H976      1.0  0.6871461445997109  0.7086702218603068  0.8166927718155069  1.0000
  H   H977      1.0  0.7139536602231347  0.5769172753167569  0.9153100161379476  1.0000
  H   H978      1.0  0.7219840212317299  0.6343939877538457  0.9216179088696965  1.0000
  H   H979      1.0  0.6449325482389205  0.6521174290523392  0.8615586380669029  1.0000
  H   H980      1.0  0.6362474674519999  0.592779154905287  0.8572240600927502  1.0000
  H   H981      1.0  0.6854516616751536  0.7501588362437893  0.8864656751868838  1.0000
  H   H982      1.0  0.644331120254962  0.7858037715144649  0.8748757149754445  1.0000
  H   H983      1.0  0.5940102427397582  0.7104577871995029  0.8873777270928049  1.0000
  H   H984      1.0  0.6340254805820426  0.6748520176995118  0.8997585053167403  1.0000
  H   H985      1.0  0.6768024518675327  0.6718726137987098  0.9389114574825813  1.0000
  H   H986      1.0  0.7010729693402625  0.6860172666491996  0.9832382991924409  1.0000
  H   H987      1.0  0.7615548661305327  0.7411059187924008  0.9629474757067233  1.0000
  H   H988      1.0  0.7371227068611779  0.7268723078090165  0.9193499024942362  1.0000
  C   C1245     1.0  0.718119695025952  0.7472952819471304  0.6698930749449242  1.0000
  C   C1246     1.0  0.7436702323471853  0.762324466532307  0.6797842685389546  1.0000
  C   C1247     1.0  0.7674465833620525  0.7452329723647306  0.6906542859371312  1.0000
  C   C1248     1.0  0.7664007257596746  0.7113354162105756  0.6915476864748331  1.0000
  C   C1249     1.0  0.7404035262727666  0.6960701590721522  0.6799976401913828  1.0000
  C   C1250     1.0  0.7163481134138883  0.7141318792831141  0.6694359299098706  1.0000
  H   H989      1.0  0.7455843917394606  0.7891030670115061  0.6805527049095876  1.0000
  H   H990      1.0  0.7864859249165947  0.7590332037065853  0.7002541451595771  1.0000
  H   H991      1.0  0.7392066242887808  0.6694753914642225  0.6782270658063299  1.0000
  H   H992      1.0  0.696074473597967  0.7023657231320118  0.6606391986029454  1.0000
  C   C1251     1.0  0.7703230997601205  0.6494431610215103  0.7246333485589532  1.0000
  C   C1252     1.0  0.7926674363240573  0.6580332025306584  0.7163838483955808  1.0000
  C   C1253     1.0  0.8155029524300823  0.637576518652074  0.7217554424427236  1.0000
  C   C1254     1.0  0.8172243452802319  0.6111431540267667  0.7356861493656784  1.0000
  C   C1255     1.0  0.7956257661362843  0.6028594884271712  0.744178117315901  1.0000
  C   C1256     1.0  0.7714594363434413  0.6213725600533014  0.7372472688856292  1.0000
  C   C1257     1.0  0.7948586717841689  0.6929578160904493  0.7060528555389405  1.0000
  C   C1258     1.0  0.8105931880104448  0.7109226347933042  0.7318402372388699  1.0000
  C   C1259     1.0  0.8395493656889613  0.7141585278931897  0.7410689342337529  1.0000
  C   C1260     1.0  0.8532230872554267  0.7324142391880247  0.7622531582571722  1.0000
  C   C1261     1.0  0.8379993300174368  0.7457832041590703  0.7758947689727286  1.0000
  C   C1262     1.0  0.8091656108974689  0.7389552872488404  0.768564781262565  1.0000
  C   C1263     1.0  0.7958573655877929  0.7218154413181935  0.7474122645651182  1.0000
  C   C1264     1.0  0.7990463552478031  0.6685681200756417  0.6651634609918878  1.0000
  C   C1265     1.0  0.8090770187882178  0.6676571863641322  0.6451199546487575  1.0000
  C   C1266     1.0  0.8297305057324474  0.6889358253832067  0.6436573143530042  1.0000
  C   C1267     1.0  0.8390216427109477  0.7125934643225534  0.66278932833126  1.0000
  C   C1268     1.0  0.8277638928635268  0.7143811303823053  0.6818956034213733  1.0000
  C   C1269     1.0  0.8086604721620299  0.6915959986666746  0.684446924080084  1.0000
  C   C1270     1.0  0.8402670170541661  0.6853909701517299  0.6202231757812973  1.0000
  C   C1271     1.0  0.8711893510846974  0.5850380808781601  0.6329534806456613  1.0000
  C   C1272     1.0  0.8468155952565883  0.5914655561912364  0.6141924423812862  1.0000
  C   C1273     1.0  0.8377574238054055  0.622761090294777  0.6098490982640703  1.0000
  C   C1274     1.0  0.8528340547258538  0.6493230972342585  0.6240532342451193  1.0000
  C   C1275     1.0  0.8772387468255931  0.6413889464100165  0.6441101695733675  1.0000
  C   C1276     1.0  0.886915460843403  0.6101829269041085  0.6478822222820277  1.0000
  C   C1277     1.0  0.8625067262804772  0.7131479836077117  0.6192719560021156  1.0000
  C   C1278     1.0  0.8546933502864779  0.7459867432696515  0.6186691437812697  1.0000
  C   C1279     1.0  0.8737750748649457  0.7706339388524912  0.6201817697438504  1.0000
  C   C1280     1.0  0.9009406551965593  0.7633952651142882  0.6218152565724919  1.0000
  C   C1281     1.0  0.90794556214379  0.7318891878320415  0.6195778384409112  1.0000
  C   C1282     1.0  0.8893630968139443  0.7067862232076543  0.6183438639195259  1.0000
  C   C1283     1.0  0.8208042877343202  0.6806997584367481  0.5719172511755435  1.0000
  C   C1284     1.0  0.8004944731263398  0.6830189247809182  0.5491004728918936  1.0000
  C   C1285     1.0  0.7748404950466921  0.6964534692466628  0.5478670579115548  1.0000
  C   C1286     1.0  0.7699959723290164  0.7085004930859009  0.5688433191793296  1.0000
  C   C1287     1.0  0.7907983885477327  0.705348211695356  0.5915343872411819  1.0000
  C   C1288     1.0  0.8163194819350165  0.6910375976081108  0.5936535556982526  1.0000
  H   H993      1.0  0.7525715951262947  0.6652766695674294  0.723180406974674  1.0000
  H   H994      1.0  0.8335872265948789  0.6442701353054963  0.7175775359616127  1.0000
  H   H995      1.0  0.837408050453705  0.5976779646498446  0.7417627651315086  1.0000
  H   H996      1.0  0.7547407826801117  0.6161795938631274  0.7446294804268068  1.0000
  H   H997      1.0  0.8522304653218604  0.7029669959885418  0.731217281540347  1.0000
  H   H998      1.0  0.8758871835975414  0.7355082569796434  0.7675464165577942  1.0000
  H   H999      1.0  0.7967788438595852  0.7472922210943587  0.7802647845464978  1.0000
  H   H1000     1.0  0.773547173196872  0.7168099112414308  0.7426319188905256  1.0000
  H   H1001     1.0  0.783130934607945  0.6516459088490519  0.6648281093913058  1.0000
  H   H1002     1.0  0.7996587370449649  0.6495074559591463  0.6301518586254483  1.0000
  H   H1003     1.0  0.8551334591877657  0.7304258805242022  0.6631660859692888  1.0000
  H   H1004     1.0  0.8346852630743823  0.7347334162228346  0.6952238711508464  1.0000
  H   H1005     1.0  0.8337033195121208  0.5721076471031893  0.6035790678098065  1.0000
  H   H1006     1.0  0.8172966034246913  0.6273478309480249  0.5953707871701986  1.0000
  H   H1007     1.0  0.8896123104319877  0.6602822488259711  0.6570111344569376  1.0000
  H   H1008     1.0  0.9057239161995702  0.6039765134471025  0.6629034747047619  1.0000
  H   H1009     1.0  0.8332936863360048  0.7521417540439321  0.6178745954951297  1.0000
  H   H1010     1.0  0.8684725228465728  0.7953505477813221  0.6236529758831343  1.0000
  H   H1011     1.0  0.9292336940655467  0.727248115407569  0.6202099333098615  1.0000
  H   H1012     1.0  0.8959711383569317  0.6824009259244957  0.6163401474317324  1.0000
  H   H1013     1.0  0.8406222802469328  0.6696548074655446  0.5727280261520342  1.0000
  H   H1014     1.0  0.8039496537803111  0.6727920422355919  0.5330880867619887  1.0000
  H   H1015     1.0  0.7493948181033017  0.7189749153715083  0.5667273214548562  1.0000
  H   H1016     1.0  0.7861876457790136  0.7138552589185496  0.608278839573692  1.0000
  C   C1289     1.0  0.8922514410384464  0.008754365751657332  0.9028415764833817  1.0000
  C   C1290     1.0  0.9194695938513852  0.00035532736862542387  0.9171005474869951  1.0000
  C   C1291     1.0  0.9264850358462973  0.9684141407761833  0.9197844793737446  1.0000
  C   C1292     1.0  0.9069796120099355  0.9442535248233246  0.9100372743423667  1.0000
  C   C1293     1.0  0.8808174742680993  0.952792529430252  0.8939187619272945  1.0000
  C   C1294     1.0  0.8728333458083063  0.9844573716982074  0.8903824625129255  1.0000
  H   H1017     1.0  0.9341900725687268  0.01931662565137798  0.9265996893210571  1.0000
  H   H1018     1.0  0.9478524227573036  0.9618613448319027  0.9307720003917023  1.0000
  H   H1019     1.0  0.8654526600721147  0.9346333597318455  0.8838470230889017  1.0000
  H   H1020     1.0  0.8509398194528426  0.9910513660659064  0.8793949414949677  1.0000
  C   C1295     1.0  0.8665843985838986  0.884662599760222  0.914258078970382  1.0000
  C   C1296     1.0  0.891532292503307  0.8799668853560499  0.9093247920763916  1.0000
  C   C1297     1.0  0.8949998240165455  0.8494676450238469  0.8997510447694527  1.0000
  C   C1298     1.0  0.8745301604022742  0.8259337830950911  0.8939448738428015  1.0000
  C   C1299     1.0  0.8484303780923255  0.8336801901513268  0.8958193363488356  1.0000
  C   C1300     1.0  0.8446761031647817  0.8624750050191508  0.9069299563970403  1.0000
  C   C1301     1.0  0.9165867602036595  0.906709892163767  0.9155711352930169  1.0000
  C   C1302     1.0  0.9326189390699378  0.8996502698978348  0.9442625350246828  1.0000
  C   C1303     1.0  0.9482915622262499  0.8712261555628833  0.9496583758505107  1.0000
  C   C1304     1.0  0.9663132739185617  0.8654574055580121  0.9730826291970616  1.0000
  C   C1305     1.0  0.968305950396272  0.887412917978306  0.992189090800857  1.0000
  C   C1306     1.0  0.9501445139508173  0.9140107252621691  0.9875299790196894  1.0000
  C   C1307     1.0  0.9335485875958255  0.9200491791989818  0.9641971173774129  1.0000
  C   C1308     1.0  0.9203578849934048  0.9000183988654685  0.8719847529014613  1.0000
  C   C1309     1.0  0.9339241190759562  0.8880350436508325  0.8562000999775136  1.0000
  C   C1310     1.0  0.9620028436969911  0.8772098433170484  0.8659155976829187  1.0000
  C   C1311     1.0  0.9766219488858099  0.8859173752553959  0.8903638111447062  1.0000
  C   C1312     1.0  0.9632149102297761  0.9003540102618915  0.9058164697143515  1.0000
  C   C1313     1.0  0.9338340347722162  0.9026816325903732  0.8972051330075255  1.0000
  C   C1314     1.0  0.9735435668751801  0.8525695684320205  0.849017458076282  1.0000
  C   C1315     1.0  0.9035634508811212  0.7798113157452597  0.8254402635103333  1.0000
  C   C1316     1.0  0.9099093917802661  0.7971048384176085  0.8074398280419391  1.0000
  C   C1317     1.0  0.9309216373878448  0.8210212960380676  0.8143706764722108  1.0000
  C   C1318     1.0  0.9475784599656973  0.8262571958901217  0.8392777135921918  1.0000
  C   C1319     1.0  0.9396367720922911  0.8096276912199261  0.8569237730644204  1.0000
  C   C1320     1.0  0.9184071133772934  0.7866835457013562  0.8503622217248895  1.0000
  C   C1321     1.0  0.5031512097350733  0.8367059087519871  0.8642556259114058  1.0000
  C   C1322     1.0  0.5283971481752211  0.8547734227469599  0.8732064175198219  1.0000
  C   C1323     1.0  0.5545912442464211  0.8405364723239332  0.88314759678068  1.0000
  C   C1324     1.0  0.5560357517297586  0.8074195781013587  0.8836959470063257  1.0000
  C   C1325     1.0  0.5317487503285139  0.7891123498408846  0.8761682547930382  1.0000
  C   C1326     1.0  0.5061112720594024  0.8034036989075861  0.8661170324596866  1.0000
  C   C1327     1.0  0.98568772639767  0.8511210772123976  0.8078016645853926  1.0000
  C   C1328     1.0  0.9939293747307554  0.8650062279522243  0.7898422621270806  1.0000
  C   C1329     1.0  0.9995634471406792  0.8973783732573359  0.7904055334473019  1.0000
  C   C1330     1.0  0.994263055667199  0.9168314853596576  0.8084787092517511  1.0000
  C   C1331     1.0  0.9846163097620665  0.9037395639375045  0.826460493351926  1.0000
  C   C1332     1.0  0.979880824490246  0.8702724783762534  0.8265481547825565  1.0000
  H   H1021     1.0  0.8629264554337734  0.9073230227443044  0.921877162887944  1.0000
  H   H1022     1.0  0.9145432840990196  0.8431234377677782  0.8965728516248931  1.0000
  H   H1023     1.0  0.8782251416183113  0.8028424342111542  0.8862679706837597  1.0000
  H   H1024     1.0  0.8246967344976741  0.8675066555691708  0.9090729986054318  1.0000
  H   H1025     1.0  0.9472449261134843  0.8542838197298321  0.9347055739491412  1.0000
  H   H1026     1.0  0.979518657376913  0.8441061950386929  0.9761787563214563  1.0000
  H   H1027     1.0  0.9505402884205936  0.9309198398182519  0.5029994238207319  1.0000
  H   H1028     1.0  0.921343230946409  0.9428432320266852  0.9615523533639238  1.0000
  H   H1029     1.0  0.8977159162309393  0.9053582341391716  0.8642201883117893  1.0000
  H   H1030     1.0  0.9217358688031771  0.8861033068695195  0.8373454318446779  1.0000
  H   H1031     1.0  0.9980520417462628  0.8802945837024351  0.8992791651535057  1.0000
  H   H1032     1.0  0.975879203444431  0.9057920169960298  0.9250124578855992  1.0000
  H   H1033     1.0  0.8983178090074931  0.7930163647528475  0.7880218885888822  1.0000
  H   H1034     1.0  0.933866150365673  0.8349045665047428  0.7996155790739655  1.0000
  H   H1035     1.0  0.9508343124184991  0.8138017521525974  0.8765058445578066  1.0000
  H   H1036     1.0  0.9130636842814538  0.7741013351955838  0.8644701166459271  1.0000
  H   H1037     1.0  0.5276615640423572  0.8811673875899859  0.8729322424069991  1.0000
  H   H1038     1.0  0.5729070904838316  0.8550260890110947  0.890938273285859  1.0000
  H   H1039     1.0  0.5328262023192624  0.7623410965906645  0.8766774371454235  1.0000
  H   H1040     1.0  0.9893326898055577  0.7867987989357458  0.8577705451815739  1.0000
  H   H1041     1.0  0.982031374127102  0.8255502347468306  0.8064214633371681  1.0000
  H   H1042     1.0  0.9970983225554885  0.8500784073900108  0.7750498619923969  1.0000
  H   H1043     1.0  0.999408907426301  0.941830588152238  0.809864505910441  1.0000
  H   H1044     1.0  0.9827073679574536  0.9203678004315583  0.8405198947155936  1.0000
  C   C1333     1.0  0.629250560004318  0.974390079335312  0.6617980081104072  1.0000
  C   C1334     1.0  0.6009365275077947  0.9675901387459446  0.6474920356588812  1.0000
  C   C1335     1.0  0.5939204708693221  0.938761404328079  0.6341143418036271  1.0000
  C   C1336     1.0  0.6142319003134364  0.9157861050095182  0.6350027064719098  1.0000
  C   C1337     1.0  0.6416307149155412  0.9220308726396425  0.6503654654467382  1.0000
  C   C1338     1.0  0.6489611724989509  0.9514354780173194  0.6623704186010557  1.0000
  H   H1045     1.0  0.5851961783984836  0.9856932927025255  0.6467858948581006  1.0000
  H   H1046     1.0  0.5716018504547999  0.9335934108468099  0.6233795468250402  1.0000
  H   H1047     1.0  0.6573423331127934  0.9031810969638199  0.6542540892067688  1.0000
  H   H1048     1.0  0.6706809823300062  0.9561391045060212  0.6732741949757092  1.0000
  C   C1339     1.0  0.6526819105026782  0.8627280552484249  0.617946589776456  1.0000
  C   C1340     1.0  0.6265325107849189  0.8551323666015758  0.6197701340472517  1.0000
  C   C1341     1.0  0.6204795474771906  0.822404260994031  0.6214825161634606  1.0000
  C   C1342     1.0  0.6405848379889816  0.798858284992422  0.6240371940684507  1.0000
  C   C1343     1.0  0.6675608234404662  0.808315913381493  0.6259905518620523  1.0000
  C   C1344     1.0  0.6734721915489968  0.8398190749118956  0.6219075808451773  1.0000
  C   C1345     1.0  0.6033989509187351  0.8812069452415022  0.6217072651505026  1.0000
  C   C1346     1.0  0.5812393507433055  0.8833957293731395  0.593803139671371  1.0000
  C   C1347     1.0  0.5629845008036819  0.8581295467487073  0.5826956903557635  1.0000
  C   C1348     1.0  0.5429743786715274  0.8600337008389174  0.5600029436707714  1.0000
  C   C1349     1.0  0.5416233740362862  0.88774040755204  0.5465277031597308  1.0000
  C   C1350     1.0  0.5605797455541118  0.9123544762841314  0.5564953673634601  1.0000
  C   C1351     1.0  0.5806441492426058  0.9105075456294526  0.5796566364181196  1.0000
  C   C1352     1.0  0.607508825641063  0.8604742125511268  0.6654881813125849  1.0000
  C   C1353     1.0  0.5967765459475534  0.8473169835558159  0.6826233798092882  1.0000
  C   C1354     1.0  0.5681478573774522  0.8392550600214823  0.6766256593310255  1.0000
  C   C1355     1.0  0.5503835873215278  0.8474865298478951  0.6530037014813506  1.0000
  C   C1356     1.0  0.5604626125796871  0.8633153148950221  0.6368876137441467  1.0000
  C   C1357     1.0  0.5895733204897885  0.8677183909364856  0.6416258073265639  1.0000
  C   C1358     1.0  0.5567972400952585  0.8202402413312894  0.6959531396482189  1.0000
  C   C1359     1.0  0.6114954719396353  0.7358608847915266  0.7072857109782328  1.0000
  C   C1360     1.0  0.616134594979909  0.7586038227485803  0.7263865771715624  1.0000
  C   C1361     1.0  0.5992049278293982  0.7851079599056187  0.7231692161537425  1.0000
  C   C1362     1.0  0.5762175497764823  0.788588816915358  0.701936498572953  1.0000
  C   C1363     1.0  0.5728500754960212  0.7670856272110103  0.6823089177411118  1.0000
  C   C1364     1.0  0.5897501308747869  0.7397683494042798  0.6854177277958957  1.0000
  C   C1365     1.0  0.5231320553834168  0.8132147629291222  0.6861063363105502  1.0000
  C   C1366     1.0  0.5051701500788112  0.8396860807068283  0.6809374826359506  1.0000
  C   C1367     1.0  0.9762685150585958  0.8358473881725648  0.6709479963314048  1.0000
  C   C1368     1.0  0.9643301934668984  0.8054683609522968  0.6673687987701316  1.0000
  C   C1369     1.0  0.9812720514466731  0.778867075812272  0.6730598907548699  1.0000
  C   C1370     1.0  0.51021331677186  0.7831266565589724  0.6825303094818742  1.0000
  C   C1371     1.0  0.5537322985404686  0.8261443809075761  0.7403266097786267  1.0000
  C   C1372     1.0  0.550442918473032  0.8437259794612015  0.7600821389964518  1.0000
  C   C1373     1.0  0.5531552414917011  0.8768424395228621  0.7607256112000159  1.0000
  C   C1374     1.0  0.5604395336645794  0.8919680672234953  0.7424025070614287  1.0000
  C   C1375     1.0  0.5638406037013236  0.8745186746499104  0.7227570209160972  1.0000
  C   C1376     1.0  0.5600637051319504  0.8410641962058585  0.7208750978627753  1.0000
  H   H1049     1.0  0.65841171842337  0.8864517869392389  0.6150623421950318  1.0000
  H   H1050     1.0  0.5995529145033726  0.814108367380221  0.6216813397486778  1.0000
  H   H1051     1.0  0.6352606108159841  0.7742816785700788  0.6265722880368106  1.0000
  H   H1052     1.0  0.695069645609728  0.8468206040011017  0.6222682983065374  1.0000
  H   H1053     1.0  0.5629246835444799  0.8357344379761413  0.5923280029589109  1.0000
  H   H1054     1.0  0.5280809029319243  0.8408596896982334  0.5528531281776058  1.0000
  H   H1055     1.0  0.5605771971689416  0.9327481278349674  0.5451713756628271  1.0000
  H   H1056     1.0  0.5943738337339675  0.9304782130920809  0.5864330515195361  1.0000
  H   H1057     1.0  0.629985712223511  0.8644639670585177  0.6710375228988572  1.0000
  H   H1058     1.0  0.6118377729397321  0.8413345179973258  0.7004369285681256  1.0000
  H   H1059     1.0  0.5280649275101523  0.8405341223661593  0.6454349762579805  1.0000
  H   H1060     1.0  0.5446723567806053  0.8716447314167394  0.6202388429306013  1.0000
  H   H1061     1.0  0.6339530687339964  0.755634589741189  0.7437304844786392  1.0000
  H   H1062     1.0  0.604108670798563  0.8024291840960305  0.7384297656307294  1.0000
  H   H1063     1.0  0.55670637289076  0.7711659920798077  0.664858324607821  1.0000
  H   H1064     1.0  0.5839579691171859  0.722403612532477  0.6702312242507391  1.0000
  H   H1065     1.0  0.5136339996506175  0.8640090351887707  0.6814019017046099  1.0000
  H   H1066     1.0  0.9631223269787024  0.8567430994056189  0.6670755992617249  1.0000
  H   H1067     1.0  0.9726139179759009  0.7547960198525371  0.6702532328652379  1.0000
  H   H1068     1.0  0.5225091124410256  0.7607081702543742  0.6868027783998568  1.0000
  H   H1069     1.0  0.5510579152121088  0.8000956872567886  0.7401382309596123  1.0000
  H   H1070     1.0  0.5448285348645779  0.8313695951227551  0.7742030898752431  1.0000
  H   H1071     1.0  0.5618350302924541  0.917623278311487  0.7432735259572676  1.0000
  H   H1072     1.0  0.5642085115677181  0.8881661590896153  0.7069182790243136  1.0000
  C   C1377     1.0  0.690637691616604  0.4911342126457461  0.8807135932280684  1.0000
  C   C1378     1.0  0.7147821202721416  0.4798988915976634  0.8979940858831996  1.0000
  C   C1379     1.0  0.7158674019930976  0.44882299839976225  0.9067751500408207  1.0000
  C   C1380     1.0  0.6921729150533613  0.42812657690439965  0.898902407515477  1.0000
  C   C1381     1.0  0.6677062458411414  0.4402702459808602  0.8821758604964574  1.0000
  C   C1382     1.0  0.667249130865675  0.4710794915176565  0.8728259296081494  1.0000
  H   H1073     1.0  0.733532149084939  0.4957725993850742  0.9048018352832244  1.0000
  H   H1074     1.0  0.7360086773665222  0.44013803859562844  0.9191223558019613  1.0000
  H   H1075     1.0  0.6488198036322862  0.4261373144787289  0.8737603631559336  1.0000
  H   H1076     1.0  0.6478839575328172  0.4783279071032032  0.858511004499878  1.0000
  C   C1383     1.0  0.648107942713558  0.38276417311878363  0.9107199144191912  1.0000
  C   C1384     1.0  0.667578070050808  0.3715520995982887  0.9002676876691258  1.0000
  C   C1385     1.0  0.6624603926406465  0.3411059601577892  0.8884203385762608  1.0000
  C   C1386     1.0  0.6375866608847293  0.3245683265998368  0.8847329630793159  1.0000
  C   C1387     1.0  0.6176709039633632  0.3376484717184691  0.8936856198245539  1.0000
  C   C1388     1.0  0.6228352699909299  0.3668569469604247  0.9065457382117239  1.0000
  C   C1389     1.0  0.695635377755869  0.3906164199679887  0.9038562109145085  1.0000
  C   C1390     1.0  0.7139381220314346  0.3810891577340765  0.931822072422446  1.0000
  C   C1391     1.0  0.7239463448810005  0.34957828024914583  0.9366005529602166  1.0000
  C   C1392     1.0  0.7408131513840546  0.34085350800358133  0.9596872165419993  1.0000
  C   C1393     1.0  0.7468490962302529  0.3624388761973675  0.9791667055101796  1.0000
  C   C1394     1.0  0.7356828904107738  0.3931012464615171  0.9757964032729619  1.0000
  C   C1395     1.0  0.7187907011549125  0.40234067602015383  0.9523106004112876  1.0000
  C   C1396     1.0  0.6952248682759065  0.3829420798344412  0.8587422814657969  1.0000
  C   C1397     1.0  0.7075245212537296  0.3754964027286511  0.8414282163478708  1.0000
  C   C1398     1.0  0.7347887844909599  0.3653260092924384  0.8481110015808266  1.0000
  C   C1399     1.0  0.7506040404202855  0.3654893394091384  0.8732213386143973  1.0000
  C   C1400     1.0  0.7386119050930099  0.37422358455035526  0.8906566376257483  1.0000
  C   C1401     1.0  0.7102879453167926  0.38123081898557154  0.8839570661613952  1.0000
  C   C1402     1.0  0.7461159610138965  0.35063441146135726  0.8272587719117098  1.0000
  C   C1403     1.0  0.6882178650497419  0.26672380978507415  0.8024860246429074  1.0000
  C   C1404     1.0  0.6869542111531954  0.2915844704521443  0.7865036672158356  1.0000
  C   C1405     1.0  0.7052658126796922  0.3184110963980503  0.7937777008213415  1.0000
  C   C1406     1.0  0.7254262303154074  0.32020021605204363  0.8171777073892074  1.0000
  C   C1407     1.0  0.7262303474040097  0.29485053152801205  0.8331749859108546  1.0000
  C   C1408     1.0  0.7073612028090875  0.26902274279549115  0.8257703927278139  1.0000
  C   C1409     1.0  0.7799868662581284  0.3425336063367213  0.8375543271687333  1.0000
  C   C1410     1.0  0.8003510519351208  0.3666937728160194  0.8470049754454254  1.0000
  C   C1411     1.0  0.8282057431826191  0.35917358418711454  0.8584755669002615  1.0000
  C   C1412     1.0  0.8374194674720362  0.32752427844869203  0.8596319517298547  1.0000
  C   C1413     1.0  0.8174212499657446  0.3043839008968082  0.8471206139283847  1.0000
  C   C1414     1.0  0.7896086993617072  0.3116213847759394  0.836453896443798  1.0000
  C   C1415     1.0  0.7529379522290671  0.3638245578584777  0.7856494345513941  1.0000
  C   C1416     1.0  0.752516332864699  0.38351216912024844  0.7665075353479821  1.0000
  C   C1417     1.0  0.7428288962801785  0.414776405061584  0.7655003614641428  1.0000
  C   C1418     1.0  0.7334963285317306  0.426063372192203  0.7843065360396085  1.0000
  C   C1419     1.0  0.735625447204917  0.40708271291475645  0.8044201715272431  1.0000
  C   C1420     1.0  0.744341029329344  0.3746973797853401  0.8051718216664788  1.0000
  H   H1077     1.0  0.6518805088819946  0.40531882337615693  0.9211982530847633  1.0000
  H   H1078     1.0  0.6780417892716809  0.3296020980148869  0.8822616567902658  1.0000
  H   H1079     1.0  0.6335169849588101  0.3017521387509645  0.8744728454219087  1.0000
  H   H1080     1.0  0.6083490393202393  0.3779797729015098  0.9143886385479167  1.0000
  H   H1081     1.0  0.7211358541890756  0.3320181000275517  0.9220767325278898  1.0000
  H   H1082     1.0  0.7500387297223033  0.31734268841975466  0.9619943907907199  1.0000
  H   H1083     1.0  0.7402501137295944  0.40982222388342543  0.9910793343918118  1.0000
  H   H1084     1.0  0.7093143062367961  0.4261653266424993  0.9496136125667846  1.0000
  H   H1085     1.0  0.6722179770914213  0.38730886591797287  0.8533501709136128  1.0000
  H   H1086     1.0  0.6934644298147259  0.37396810326556335  0.8224653702793635  1.0000
  H   H1087     1.0  0.7727131322172227  0.3588403292319756  0.8801204797186963  1.0000
  H   H1088     1.0  0.7521683192154979  0.3751198165157132  0.9099160404489416  1.0000
  H   H1089     1.0  0.6733514652904543  0.2894906134849701  0.7671603332356558  1.0000
  H   H1090     1.0  0.703003772109597  0.3376915076077717  0.7809399640760346  1.0000
  H   H1091     1.0  0.7410087095006321  0.2956654431208711  0.851686468868456  1.0000
  H   H1092     1.0  0.7089561542758764  0.24984556153133752  0.839025920121232  1.0000
  H   H1093     1.0  0.7931704790480317  0.3914558774987072  0.8472716900109605  1.0000
  H   H1094     1.0  0.8428366041449317  0.3782831744925332  0.8672846081102115  1.0000
  H   H1095     1.0  0.823493038353468  0.27976360954262414  0.8447649461222939  1.0000
  H   H1096     1.0  0.7750402389072595  0.29170996027644935  0.8280794321133566  1.0000
  H   H1097     1.0  0.7609899039017413  0.3396262926212917  0.7861381003987384  1.0000
  H   H1098     1.0  0.760100393804469  0.3728364056298996  0.7526756806765894  1.0000
  H   H1099     1.0  0.7255761716381866  0.4499546316023666  0.7843363782287592  1.0000
  H   H1100     1.0  0.7313674782026697  0.4184489805168218  0.819805685171299  1.0000
  C   C1421     1.0  0.8886663786863981  0.4974459072696288  0.619789904497564  1.0000
  C   C1422     1.0  0.8636847141015728  0.48665754820114415  0.6020992682552916  1.0000
  C   C1423     1.0  0.8579193397458081  0.45432970716346543  0.598438377701218  1.0000
  C   C1424     1.0  0.8774482660686314  0.43145498194107057  0.6106279794009061  1.0000
  C   C1425     1.0  0.902336609694685  0.4427503616542204  0.6282630345658853  1.0000
  C   C1426     1.0  0.9083836852868442  0.4747755986397008  0.6325711275971667  1.0000
  H   H1101     1.0  0.8485450853120501  0.5041458608032521  0.5912109725162602  1.0000
  H   H1102     1.0  0.8370896863381494  0.4467711548928155  0.5860432379237538  1.0000
  H   H1103     1.0  0.9182638760925299  0.4261407491672611  0.6385550460629473  1.0000
  H   H1104     1.0  0.928161128542186  0.48267333034059434  0.6462386637145479  1.0000
  C   C1427     1.0  0.9214946229187686  0.3751324239368456  0.6104310209525109  1.0000
  C   C1428     1.0  0.8957263176381067  0.3686501196234231  0.6141267895651544  1.0000
  C   C1429     1.0  0.8924954413801768  0.3382703879551396  0.6232806945734781  1.0000
  C   C1430     1.0  0.9131097867670136  0.316156081047724  0.6281565352533534  1.0000
  C   C1431     1.0  0.9392335455866468  0.32299087437352497  0.6263348561193796  1.0000
  C   C1432     1.0  0.9429963013675561  0.3532452551658422  0.6176255997294028  1.0000
  C   C1433     1.0  0.8694847353170984  0.3937996118132291  0.6064472752145621  1.0000
  C   C1434     1.0  0.8529487801123251  0.3808436426436049  0.5783101941463723  1.0000
  C   C1435     1.0  0.8384641492486384  0.35153718773869913  0.5744889018256132  1.0000
  C   C1436     1.0  0.8221571380024969  0.34120614862411247  0.5516760403292892  1.0000
  C   C1437     1.0  0.8194818685052908  0.3595197460209784  0.5311192483327651  1.0000
  C   C1438     1.0  0.8358725231510102  0.38772724548345266  0.5339861501417454  1.0000
  C   C1439     1.0  0.852932889559015  0.3979652294423957  0.5572667879530081  1.0000
  C   C1440     1.0  0.8650765734360967  0.39095221741382397  0.6501683204846608  1.0000
  C   C1441     1.0  0.8502292173442695  0.3826336943257633  0.6656476505108595  1.0000
  C   C1442     1.0  0.82197817395724  0.37324384560026075  0.6562523967977788  1.0000
  C   C1443     1.0  0.8081735591854828  0.3800051381878655  0.6314507399082365  1.0000
  C   C1444     1.0  0.8230058953770474  0.3895099743550911  0.616220592161447  1.0000
  C   C1445     1.0  0.8519877301547532  0.39221598164041266  0.6246946547981792  1.0000
  C   C1446     1.0  0.8078971580780574  0.35201381294880907  0.6729526453876093  1.0000
  C   C1447     1.0  0.8774759181405632  0.30139859383485146  0.7278134068403348  1.0000
  C   C1448     1.0  0.8555018522209288  0.3144576049637525  0.7343768233166874  1.0000
  C   C1449     1.0  0.8334057447132162  0.3303108553105806  0.7177715101910928  1.0000
  C   C1450     1.0  0.8317638066672983  0.3316743540908345  0.692663038294344  1.0000
  C   C1451     1.0  0.8521874531100605  0.314380342174838  0.6854251883431834  1.0000
  C   C1452     1.0  0.8754313835525952  0.3005211190719505  0.7030798274447927  1.0000
  C   C1453     1.0  0.7836489193574416  0.32661681905160284  0.6559659117819312  1.0000
  C   C1454     1.0  0.7576022872383058  0.33864710351776506  0.639892162650585  1.0000
  C   C1455     1.0  0.7345128175243464  0.3180054391831945  0.62894399601957  1.0000
  C   C1456     1.0  0.736213815220268  0.2855159312728939  0.6335227204037126  1.0000
  C   C1457     1.0  0.7614149445555135  0.273356043065746  0.6476494532066517  1.0000
  C   C1458     1.0  0.7843235169283735  0.29329389443918247  0.6589930288439148  1.0000
  C   C1459     1.0  0.7694071704570258  0.36981893999960214  0.6937877157979645  1.0000
  C   C1460     1.0  0.7598672496265595  0.3903371164250002  0.7083525692403735  1.0000
  C   C1461     1.0  0.7742585489573993  0.41802805114927605  0.7190025004935628  1.0000
  C   C1462     1.0  0.7985925538270503  0.4254458215189073  0.7141027860623671  1.0000
  C   C1463     1.0  0.8074572761682913  0.40609247495836054  0.6981670570558435  1.0000
  C   C1464     1.0  0.7934306962625144  0.3774669244570841  0.6876831229798053  1.0000
  H   H1105     1.0  0.9241545488719669  0.3977594898309316  0.6022663845145361  1.0000
  H   H1106     1.0  0.8724707216852785  0.3311046003148736  0.6253446549806199  1.0000
  H   H1107     1.0  0.9096962577209966  0.29373865536590754  0.6357192920388932  1.0000
  H   H1108     1.0  0.9628142816036575  0.35904486319087286  0.6156511658897135  1.0000
  H   H1109     1.0  0.8388410851387477  0.33731443655593796  0.5903009722608432  1.0000
  H   H1110     1.0  0.8088215717638317  0.3202510416748926  0.5484978471847296  1.0000
  H   H1111     1.0  0.8355074673382239  0.40185916508934943  0.5179983278637854  1.0000
  H   H1112     1.0  0.8645980618295287  0.4209965672761711  0.5600715807058183  1.0000
  H   H1113     1.0  0.8878624042709864  0.3950345387845441  0.657998910917829  1.0000
  H   H1114     1.0  0.862707645490655  0.37998948599148813  0.6851963360551333  1.0000
  H   H1115     1.0  0.7863468169310315  0.3758223619391049  0.622667064559065  1.0000
  H   H1116     1.0  0.8112982661430586  0.3916778160758652  0.5964900557770356  1.0000
  H   H1117     1.0  0.8560773885685706  0.3141789761190405  0.7532258960390572  1.0000
  H   H1118     1.0  0.8186276776848337  0.34102992642259805  0.7258550131773138  1.0000
  H   H1119     1.0  0.8505588406216881  0.31308016235737157  0.6656213520816703  1.0000
  H   H1120     1.0  0.8915085248204982  0.2899525106444293  0.6967737998498658  1.0000
  H   H1121     1.0  0.7547975621316394  0.3642050000225302  0.6382014161215105  1.0000
  H   H1122     1.0  0.7142203943135496  0.3269841101820482  0.618169473626676  1.0000
  H   H1123     1.0  0.7632517002420425  0.24718139479708506  0.6499711755225833  1.0000
  H   H1124     1.0  0.8030209496783889  0.2815474249116678  0.669973275828267  1.0000
  H   H1125     1.0  0.7587535622108804  0.3466960379577437  0.6875973266859967  1.0000
  H   H1126     1.0  0.7401950311116636  0.3847518206918837  0.7107119673201081  1.0000
  H   H1127     1.0  0.8111745261939716  0.4470924919274572  0.7226208659280966  1.0000
  H   H1128     1.0  0.8267279496314802  0.4129388537911427  0.6961172716885483  1.0000
  C   C1465     1.0  0.5616956602916893  0.2678825246713144  0.8824183282833074  1.0000
  C   C1466     1.0  0.5358223969387461  0.28091863269202316  0.8696067034535075  1.0000
  C   C1467     1.0  0.5142728193929084  0.2616053442867196  0.8544170291757536  1.0000
  C   C1468     1.0  0.5178061685113869  0.22787688364197767  0.8531617920945984  1.0000
  C   C1469     1.0  0.5437352468305506  0.2151977320234721  0.8669153110194703  1.0000
  C   C1470     1.0  0.5653887604328337  0.23535730842608407  0.8807098629544244  1.0000
  H   H1129     1.0  0.5319901899382792  0.3057146133610544  0.871005556069951  1.0000
  H   H1130     1.0  0.9947199504496371  0.272349531550416  0.8428289341011362  1.0000
  H   H1131     1.0  0.5482466132159707  0.18973555736349879  0.8663669607938246  1.0000
  H   H1132     1.0  0.5854093820161169  0.22473922538720964  0.8906920752253649  1.0000
  C   C1471     1.0  0.5205421992808763  0.1692093024010732  0.8166349525740274  1.0000
  C   C1472     1.0  0.9992813471023774  0.17251585967925237  0.8272848838272167  1.0000
  C   C1473     1.0  0.9800979790188585  0.14713104856432208  0.823493060668244  1.0000
  C   C1474     1.0  0.9813272728706637  0.12080379032524201  0.8087267724490671  1.0000
  C   C1475     1.0  0.5022021971340527  0.11818152429343928  0.7982726805621797  1.0000
  C   C1476     1.0  0.5221315442577148  0.14237291161404675  0.8024505870432909  1.0000
  C   C1477     1.0  0.9923540879285124  0.20556632652710513  0.8379236242594745  1.0000
  C   C1478     1.0  0.9732718337965534  0.221247814401557  0.8121940618010248  1.0000
  C   C1479     1.0  0.9448065522893033  0.21297880932676602  0.8013464260447114  1.0000
  C   C1480     1.0  0.927759704814401  0.2245498609914414  0.778655171469177  1.0000
  C   C1481     1.0  0.9395568339706312  0.2447345359655592  0.7661102612049121  1.0000
  C   C1482     1.0  0.968046979720348  0.2515956971217285  0.7751561747912463  1.0000
  C   C1483     1.0  0.9850702939051045  0.23992756647706712  0.7977299257469996  1.0000
  C   C1484     1.0  0.9907181834988993  0.17950550999272924  0.8793333919798443  1.0000
  C   C1485     1.0  0.9807198169441717  0.17945880214341084  0.8992381321434234  1.0000
  C   C1486     1.0  0.9587744993313666  0.19910400285427346  0.899892795167919  1.0000
  C   C1487     1.0  0.9456709736034384  0.21683572887707797  0.8789249270158428  1.0000
  C   C1488     1.0  0.9569097508550606  0.21997632641460202  0.8605402733621321  1.0000
  C   C1489     1.0  0.979065057616304  0.20109227364803192  0.8596431425507864  1.0000
  C   C1490     1.0  0.9450093340406851  0.19689709772816888  0.9213437337568735  1.0000
  C   C1491     1.0  0.9073790602190515  0.09958236509657231  0.8977441575490618  1.0000
  C   C1492     1.0  0.9320419096881248  0.10351226791913955  0.9170110209195428  1.0000
  C   C1493     1.0  0.9429557881495679  0.13392176563387603  0.9254488999019296  1.0000
  C   C1494     1.0  0.9297727896365365  0.16166152411943485  0.9148176200169594  1.0000
  C   C1495     1.0  0.905373016105021  0.15709565107282564  0.8946349744669134  1.0000
  C   C1496     1.0  0.8929954376909103  0.12678820198832  0.8870904960222286  1.0000
  C   C1497     1.0  0.925684862892533  0.22742411023740894  0.921455641966189  1.0000
  C   C1498     1.0  0.9367440318794619  0.258202829453382  0.9216570767429569  1.0000
  C   C1499     1.0  0.9194258445484781  0.2842131283194856  0.9154088683895095  1.0000
  C   C1500     1.0  0.8907942584101032  0.280653507759548  0.9116655387879068  1.0000
  C   C1501     1.0  0.8802083812559547  0.25085256949537144  0.9152596574437556  1.0000
  C   C1502     1.0  0.8979508935997542  0.2246273298035422  0.9207785972998305  1.0000
  C   C1503     1.0  0.955842641160832  0.1891265576423686  0.9677520681600011  1.0000
  C   C1504     1.0  0.9725978181395891  0.19052185484063397  0.9922711568210217  1.0000
  C   C1505     1.0  0.999568862022316  0.20170141165306876  0.9985771844159488  1.0000
  C   C1506     1.0  0.5095966303127111  0.21280074640711463  0.980714769072377  1.0000
  C   C1507     1.0  0.9933493236905929  0.21180211154855766  0.955882337425273  1.0000
  C   C1508     1.0  0.9662516252767138  0.19879490881475495  0.9491118907616869  1.0000
  H   H1133     1.0  0.5354379633254683  0.18895288837168145  0.8179200318443334  1.0000
  H   H1134     1.0  0.9628110821613992  0.14847915572488748  0.8309666639136959  1.0000
  H   H1135     1.0  0.9653586956586313  0.10171953507475734  0.8052426968657119  1.0000
  H   H1136     1.0  0.538460091519756  0.14218927094955247  0.7942402547531787  1.0000
  H   H1137     1.0  0.9355788688528358  0.1952612579853848  0.8103009479267715  1.0000
  H   H1138     1.0  0.9052377687542976  0.2190564576766138  0.7716702340710694  1.0000
  H   H1139     1.0  0.9772837108572949  0.26764215880939457  0.7647170039989346  1.0000
  H   H1140     1.0  0.506979839550158  0.2465226304185292  0.8039203148589674  1.0000
  H   H1141     1.0  0.5073825217282413  0.16324495056466795  0.8792475956860357  1.0000
  H   H1142     1.0  0.9891153998087662  0.16154542028568225  0.9139950946784907  1.0000
  H   H1143     1.0  0.9254622100601964  0.22773888207966278  0.8761365474670655  1.0000
  H   H1144     1.0  0.9460296125037249  0.2353152010162538  0.8444273563575255  1.0000
  H   H1145     1.0  0.9436822613891771  0.08201362642540982  0.9241433041265824  1.0000
  H   H1146     1.0  0.9636578314295605  0.13492257814414646  0.9400286744389141  1.0000
  H   H1147     1.0  0.8950530939293122  0.17719011398364423  0.8836754305012847  1.0000
  H   H1148     1.0  0.873498026190669  0.12523719425756344  0.8714102907603085  1.0000
  H   H1149     1.0  0.9590058837303089  0.2605155079996607  0.9234494732288263  1.0000
  H   H1150     1.0  0.9290286945202104  0.30703931865808454  0.9122866293496078  1.0000
  H   H1151     1.0  0.8580783036526763  0.24649203315387797  0.9119565001321271  1.0000
  H   H1152     1.0  0.8893029800348631  0.20133673280887163  0.9226940928159469  1.0000
  H   H1153     1.0  0.933203764641768  0.18102952056035024  0.9624494841752695  1.0000
  H   H1154     1.0  0.9641813549903882  0.1820722403399934  0.5062559527118123  1.0000
  H   H1155     1.0  0.5309191474160644  0.22178205885848362  0.9861721594133283  1.0000
  H   H1156     1.0  0.5018747611831371  0.2210753964009517  0.942675303589225  1.0000
  C   C1509     1.0  0.9938224174815115  0.263606786666288  0.6736595322431188  1.0000
  C   C1510     1.0  0.5210349639779663  0.2720957065938634  0.6876775275693395  1.0000
  C   C1511     1.0  0.5401823114063897  0.24891926055358524  0.7002000561917411  1.0000
  C   C1512     1.0  0.5310662673474207  0.21711788182977726  0.7005096689041806  1.0000
  C   C1513     1.0  0.503517459673393  0.2085880438053132  0.6852244996211443  1.0000
  C   C1514     1.0  0.9855301484694935  0.23151756417667715  0.6724121287366156  1.0000
  H   H1157     1.0  0.5292231563763916  0.29715291244776654  0.6894867102866064  1.0000
  H   H1158     1.0  0.5622142693029893  0.2555249141298699  0.7091657688947326  1.0000
  H   H1159     1.0  0.9950975166723844  0.18370923248957666  0.6825730211150963  1.0000
  H   H1160     1.0  0.9642628427692878  0.2246781304690249  0.6614507196341648  1.0000
  C   C1515     1.0  0.5150061051248883  0.16186891965747904  0.731368357622923  1.0000
  C   C1516     1.0  0.5376617130903467  0.1583861102221025  0.7227570209160972  1.0000
  C   C1517     1.0  0.5498750811063354  0.12791855801609783  0.723575815980922  1.0000
  C   C1518     1.0  0.5418122858747303  0.10347257287576014  0.7358390905850762  1.0000
  C   C1519     1.0  0.5211233999103636  0.1088780661031149  0.7462409586409496  1.0000
  C   C1520     1.0  0.5056816667145271  0.1366566798556701  0.742173095232332  1.0000
  C   C1521     1.0  0.5521051929273222  0.18972165825738868  0.7154811221737694  1.0000
  C   C1522     1.0  0.5737875030400714  0.19966288686037428  0.7425629088281143  1.0000
  C   C1523     1.0  0.5982320505274303  0.18233124739651388  0.7526327825296852  1.0000
  C   C1524     1.0  0.6193561808476606  0.1932752189181779  0.7736472791023093  1.0000
  C   C1525     1.0  0.6172043136229134  0.22320843200702062  0.7842934800818551  1.0000
  C   C1526     1.0  0.5918541572107527  0.23916293645108536  0.7756578965963442  1.0000
  C   C1527     1.0  0.5701287511048595  0.2269955084562714  0.7555330702877778  1.0000
  C   C1528     1.0  0.5539607851421694  0.1606827002205696  0.6751331768461213  1.0000
  C   C1529     1.0  0.5677957106281869  0.15236342384607549  0.6589258839183254  1.0000
  C   C1530     1.0  0.5934306436128233  0.16693785595976504  0.6606654970321345  1.0000
  C   C1531     1.0  0.6058735860538154  0.18751985725042325  0.6807311985034458  1.0000
  C   C1532     1.0  0.5922952461237294  0.19598634759710362  0.6972251629607715  1.0000
  C   C1533     1.0  0.5665821380678712  0.18187186097966623  0.6951306143097501  1.0000
  C   C1534     1.0  0.6068988568672828  0.16133544321247847  0.6388592498786032  1.0000
  C   C1535     1.0  0.6419374631016174  0.06394852882928546  0.6584957833671896  1.0000
  C   C1536     1.0  0.6164220188951692  0.06754718538839011  0.6398781741244207  1.0000
  C   C1537     1.0  0.6054859472688949  0.09811030009511064  0.6331099656250206  1.0000
  C   C1538     1.0  0.6193170473386825  0.12597943025211353  0.6458805574447383  1.0000
  C   C1539     1.0  0.6437017487563006  0.12131490844515157  0.666403030923739  1.0000
  C   C1540     1.0  0.6552343550065793  0.09120393185240644  0.6720637211782801  1.0000
  C   C1541     1.0  0.6297805042551687  0.18894295402875333  0.6377032380763744  1.0000
  C   C1542     1.0  0.6244495065850462  0.22188462470618717  0.6393723490183146  1.0000
  C   C1543     1.0  0.6457410458263252  0.24428288020801447  0.6411544872516637  1.0000
  C   C1544     1.0  0.6712050321043281  0.23475330002773642  0.6390813876740944  1.0000
  C   C1545     1.0  0.6753074780573695  0.20282340329424106  0.635116293304365  1.0000
  C   C1546     1.0  0.654420304176739  0.18033905976154738  0.6334671393264193  1.0000
  C   C1547     1.0  0.5886602544316148  0.150079576445958  0.5906723210020884  1.0000
  C   C1548     1.0  0.5685157512752994  0.15128648833857997  0.5673271494567871  1.0000
  C   C1549     1.0  0.5438946148531559  0.16778996006865388  0.5637947668297442  1.0000
  C   C1550     1.0  0.5398374959460175  0.18338707143824606  0.583679736543011  1.0000
  C   C1551     1.0  0.5600415064093457  0.18214819974512206  0.6067990400191772  1.0000
  C   C1552     1.0  0.5842842968225067  0.16426207161989836  0.6112925276505579  1.0000
  H   H1161     1.0  0.5053723925768981  0.1848029656173587  0.7307192900088932  1.0000
  H   H1162     1.0  0.5678691205660813  0.12415096532027736  0.7170608930619394  1.0000
  H   H1163     1.0  0.5530522939519291  0.08085674639066052  0.7386498517757165  1.0000
  H   H1164     1.0  0.9887109896952387  0.14026233376100725  0.7497138434033732  1.0000
  H   H1165     1.0  0.601328070994422  0.15950172875186794  0.7434283323134873  1.0000
  H   H1166     1.0  0.6390358808383617  0.18022218867939066  0.7793676537351522  1.0000
  H   H1167     1.0  0.5874827868062693  0.26191297373578476  0.7843382433655811  1.0000
  H   H1168     1.0  0.5514896698927574  0.24087658384221025  0.7480967697787646  1.0000
  H   H1169     1.0  0.5336726598949221  0.14928650461521698  0.6722852994327246  1.0000
  H   H1170     1.0  0.5582443330284702  0.13510554358086066  0.6439514464298217  1.0000
  H   H1171     1.0  0.6267787335029266  0.19825847959810147  0.6836542409307661  1.0000
  H   H1172     1.0  0.6033138689763952  0.21327287195008024  0.7118608916024137  1.0000
  H   H1173     1.0  0.605807163090369  0.0471878692872739  0.6281865639561863  1.0000
  H   H1174     1.0  0.5860045390434622  0.1004004801714357  0.6176647676026632  1.0000
  H   H1175     1.0  0.6547306526917943  0.1420873062158636  0.6775244687655109  1.0000
  H   H1176     1.0  0.6747077980544423  0.08947634086235767  0.6882277429318073  1.0000
  H   H1177     1.0  0.6053539171148034  0.23150810179352863  0.6415903697269474  1.0000
  H   H1178     1.0  0.641755557745855  0.26959469455061746  0.64367652526227  1.0000
  H   H1179     1.0  0.6963092705485646  0.19537005097687726  0.6354755186562676  1.0000
  H   H1180     1.0  0.6580790396986678  0.15522565044257564  0.6299084582701872  1.0000
  H   H1181     1.0  0.6082621927556296  0.13692111985417937  0.5932465828437087  1.0000
  H   H1182     1.0  0.5727608778823265  0.14042085036794216  0.5511890531050847  1.0000
  H   H1183     1.0  0.521251018845758  0.1969833783321659  0.5816349870451349  1.0000
  H   H1184     1.0  0.5549335247656438  0.19406213786118026  0.6221200199291944  1.0000
  C   C1553     1.0  0.5190740359901471  0.20219471168270703  0.5259076830249435  1.0000
  C   C1554     1.0  0.5214187733681497  0.16860195873586387  0.538447557419789  1.0000
  H   H1185     1.0  0.5403788346721644  0.21151641895878112  0.528655589104685  1.0000
  H   H1186     1.0  0.5108401634831846  0.220036463014294  0.5360588766919503  1.0000
  H   H1187     1.0  0.5007317168370176  0.1622384659907331  0.5402250328110831  1.0000
  H   H1188     1.0  0.5250421991497586  0.1496145194398791  0.5262519872822707  1.0000
  C   C1555     1.0  0.5203716242343257  0.08411771865867253  0.765524608242828  1.0000
  C   C1556     1.0  0.9998166799888812  0.08823126650305786  0.781027625506665  1.0000
  H   H1189     1.0  0.5164429776724153  0.05957719685718028  0.7569916072825229  1.0000
  H   H1190     1.0  0.5412984660961203  0.08292991785448617  0.7793601931878645  1.0000
  H   H1191     1.0  0.9778753113218068  0.08650074722482916  0.7679567466586176  1.0000
  H   H1192     1.0  0.502718412521901  0.06657707785630974  0.7930428369135032  1.0000
  C   C1557     1.0  0.7104387568323696  0.2621948276131966  0.6245842386983211  1.0000
  C   C1558     1.0  0.6964659706634899  0.2590102413858862  0.645126296113952  1.0000
  H   H1193     1.0  0.6949310637794257  0.2705352378175487  0.6078317662774767  1.0000
  H   H1194     1.0  0.7177515993971415  0.2379488846790826  0.6201362604053955  1.0000
  H   H1195     1.0  0.7120226053954294  0.25214832695364225  0.6626639911368267  1.0000
  H   H1196     1.0  0.6897167099285655  0.28282639978385227  0.6501166561946934  1.0000
  C   C1559     1.0  0.9714889063650741  0.29039669449574246  0.6632802323427905  1.0000
  C   C1560     1.0  0.9629178635143413  0.29746850357225985  0.6351576993418118  1.0000
  H   H1197     1.0  0.97873967079802  0.3124494339948771  0.6739635495450925  1.0000
  H   H1198     1.0  0.951534795416657  0.2836073880011658  0.6678488849880949  1.0000
  H   H1199     1.0  0.9579864099104521  0.2745770431899137  0.6249641670689472  1.0000
  H   H1200     1.0  0.9821121174496313  0.304544930262555  0.6306228056729842  1.0000
  C   C1561     1.0  0.9028907148058257  0.289015370164207  0.7490852922943846  1.0000
  C   C1562     1.0  0.9203149002028791  0.2606935592525332  0.7429471270134308  1.0000
  H   H1201     1.0  0.9171732032649138  0.31060023673965453  0.7570009329666325  1.0000
  H   H1202     1.0  0.8954696930743434  0.28237519234791253  0.7652411074458954  1.0000
  H   H1203     1.0  0.9335434426523654  0.27023311585900833  0.7322039389191451  1.0000
  H   H1204     1.0  0.9057605086568108  0.24333845995610176  0.7303593186022618  1.0000
  C   C1563     1.0  0.5883995808841535  0.32189726960184833  0.8863500367039245  1.0000
  C   C1564     1.0  0.5861094739408526  0.28993143745960726  0.8986580745918047  1.0000
  H   H1205     1.0  0.5810686729613469  0.31692927470259036  0.8664415662667013  1.0000
  H   H1206     1.0  0.5732031478786124  0.3391331638695048  0.8892671106934146  1.0000
  H   H1207     1.0  0.5845045512386129  0.29410523373766856  0.9173113079478725  1.0000
  H   H1208     1.0  0.6058075802052075  0.2766041554035952  0.9011144597862796  1.0000
  C   C1565     1.0  0.8676392987313826  0.31784732633035856  0.8741520418885378  1.0000
  C   C1566     1.0  0.869981975992564  0.30814505172191226  0.9006854783172369  1.0000
  H   H1209     1.0  0.8720633530828311  0.29633724471815664  0.864029944355953  1.0000
  H   H1210     1.0  0.8820867946909938  0.3377818682442301  0.8731411377310545  1.0000
  H   H1211     1.0  0.8746506417225222  0.3299239689442279  0.9132826124125156  1.0000
  H   H1212     1.0  0.8483382255308907  0.3003338600223551  0.8998219199686858  1.0000
  C   C1567     1.0  0.6432685317562936  0.23882486321152727  0.8038009461023643  1.0000
  C   C1568     1.0  0.6695996529054311  0.23693808483963014  0.7946002261598102  1.0000
  H   H1213     1.0  0.6382784163290872  0.26410908857945925  0.8063170156751406  1.0000
  H   H1214     1.0  0.6481400173674501  0.2267267825242383  0.8219878952529509  1.0000
  H   H1215     1.0  0.6621711755259477  0.23538347745222166  0.7736920423860357  1.0000
  H   H1216     1.0  0.6814622087440401  0.21490344557123123  0.8007495822616957  1.0000
  C   C1569     1.0  0.766728520339798  0.35249514374375546  0.5050175018620543  1.0000
  C   C1570     1.0  0.7980721425800761  0.35078382052395846  0.5055733126349878  1.0000
  H   H1217     1.0  0.7597424018971682  0.32926164143380626  0.5097642750738524  1.0000
  H   H1218     1.0  0.7650530417433515  0.3698191721428775  0.5198482265178749  1.0000
  H   H1219     1.0  0.8006119457814137  0.3673428869619787  0.9911110417177846  1.0000
  H   H1220     1.0  0.8023973067266085  0.32627873463442847  0.999783927939734  1.0000
  C   C1571     1.0  0.7378621865964885  0.4352672124189629  0.7419250320350161  1.0000
  C   C1572     1.0  0.7659783070530156  0.44189576956602195  0.7368369387848059  1.0000
  H   H1221     1.0  0.7207249837239527  0.42561085800969495  0.7253047978148461  1.0000
  H   H1222     1.0  0.7283222904524085  0.4579905437748115  0.7459276156548662  1.0000
  H   H1223     1.0  0.7842161976877309  0.44460369614768985  0.7545781202349526  1.0000
  H   H1224     1.0  0.7636204577320237  0.4662979712897319  0.7287068073780366  1.0000
  C   C1573     1.0  0.6388829316015614  0.007395894293559694  0.6752195326809766  1.0000
  C   C1574     1.0  0.6539793910944166  0.030045284930691266  0.6625813655756154  1.0000
  H   H1225     1.0  0.6210197012969414  0.020296242119711302  0.677985903615255  1.0000
  H   H1226     1.0  0.6534396747364537  0.002938398864180457  0.6946102411364332  1.0000
  H   H1227     1.0  0.6531127349459017  0.018820115107955965  0.6443632686401026  1.0000
  H   H1228     1.0  0.6768325901478563  0.03139896610763518  0.6719255145397754  1.0000
  C   C1575     1.0  0.8843257492340545  0.044670907416947014  0.9022074299639273  1.0000
  C   C1576     1.0  0.8978857589444564  0.06583635836310817  0.8870270813702831  1.0000
  H   H1229     1.0  0.8615929641342214  0.047803721830507954  0.8947263661711878  1.0000
  H   H1230     1.0  0.8914334158158547  0.05350596191260933  0.9215768758596141  1.0000
  H   H1231     1.0  0.8822662452724336  0.0682580663765398  0.8677751390943774  1.0000
  H   H1232     1.0  0.9162990033659282  0.05398863673561117  0.8846527621959731  1.0000
  C   C1577     1.0  0.9895949432442135  0.8825095042101817  0.5179406391818833  1.0000
  C   C1578     1.0  0.5207855974863831  0.8895807388204481  0.5197725019629047  1.0000
  H   H1233     1.0  0.984493543490559  0.8987301491305695  0.5314907835876925  1.0000
  H   H1234     1.0  0.9872222249145081  0.8578109994393475  0.5244931632591959  1.0000
  H   H1235     1.0  0.5277695678136072  0.8728016045588229  0.5077648484007493  1.0000
  H   H1236     1.0  0.5222531945452139  0.9145991847895469  0.5133789102347422  1.0000
  C   C1579     1.0  0.5458468361288389  0.897715510904229  0.7804233211763615  1.0000
  C   C1580     1.0  0.5146051571163184  0.9091692325310657  0.7728583262266353  1.0000
  H   H1237     1.0  0.5515061302076756  0.8852368458184964  0.7983379603509472  1.0000
  H   H1238     1.0  0.5588055146594892  0.9203133368205525  0.7847243266877196  1.0000
  H   H1239     1.0  0.502339805720669  0.8995637440416485  0.7536865848340725  1.0000
  H   H1240     1.0  0.5134678531121385  0.9355979373072202  0.7709073931109023  1.0000
  C   C1581     1.0  0.8790809532596653  0.5500458948772381  0.6392540993438046  1.0000
  C   C1582     1.0  0.8956271963009358  0.5339668261547472  0.6237497764841922  1.0000
  H   H1241     1.0  0.8910201478792141  0.5482257013085247  0.6595835311617361  1.0000
  H   H1242     1.0  0.8595304938601089  0.5361909729090324  0.6373371117182306  1.0000
  H   H1243     1.0  0.9188168664979576  0.5388450940978264  0.6328867087474364  1.0000
  H   H1244     1.0  0.8908659741270432  0.5436061929445092  0.6052257971098838  1.0000
  C   C1583     1.0  0.6922088366959698  0.7685391423762398  0.6589111493374323  1.0000
  C   C1584     1.0  0.691435007914415  0.7838997714290049  0.6342090907541809  1.0000
  H   H1245     1.0  0.6911306372784812  0.786114516648527  0.6730998046828591  1.0000
  H   H1246     1.0  0.673143494318237  0.7529044460372113  0.6567531860344655  1.0000
  H   H1247     1.0  0.6901928905087756  0.7656974789137058  0.6193338785446034  1.0000
  H   H1248     1.0  0.7117012576729226  0.7957853849903401  0.6362954328031857  1.0000
  C   C1585     1.0  0.9323042248473876  0.8014727497971283  0.6554130852279128  1.0000
  C   C1586     1.0  0.9229604959429821  0.7903275230776448  0.6274304374885781  1.0000
  H   H1249     1.0  0.9215650733192505  0.8244854895395953  0.6574615649994325  1.0000
  H   H1250     1.0  0.9248193971990347  0.7838264147610815  0.6661450825012668  1.0000
  H   H1251     1.0  0.9419845816939493  0.7824024706776169  0.6230962325417898  1.0000
  H   H1252     1.0  0.9153134183863689  0.811418131939547  0.6157231601710398  1.0000
  C   C1587     1.0  0.8520205513492876  0.765610673442177  0.8001657944364332  1.0000
  C   C1588     1.0  0.8808842669503757  0.7534205865143594  0.8178734034237852  1.0000
  H   H1253     1.0  0.8542718005558362  0.7909097680120187  0.7949471416086882  1.0000
  H   H1254     1.0  0.8370585655124496  0.7681723561092975  0.8108679495206366  1.0000
  H   H1255     1.0  0.879271155307848  0.7423799015510197  0.8347510265253808  1.0000
  H   H1256     1.0  0.8892461790027786  0.733561005259154  0.8089599145518076  1.0000
  C   C1589     1.0  0.6883513506283951  0.5262637476816773  0.8716975218308849  1.0000
  C   C1590     1.0  0.6694120820047098  0.5456456228395058  0.8835075681873115  1.0000
  H   H1257     1.0  0.7099908478015031  0.5376575140560854  0.8758418558492014  1.0000
  H   H1258     1.0  0.678657631535624  0.5261730375570443  0.8509068416768916  1.0000
  H   H1259     1.0  0.6716785879237712  0.5381200941309939  0.9028285205256282  1.0000
  H   H1260     1.0  0.6471680366751642  0.5394887649428983  0.8721320987103934  1.0000
  C   C1591     1.0  0.5849135140463658  0.789861874208106  0.8929097229066332  1.0000
  C   C1592     1.0  0.5911013754202008  0.7708684174636924  0.8716956566940629  1.0000
  H   H1261     1.0  0.6017419411955571  0.8084964563424148  0.9003012601319204  1.0000
  H   H1262     1.0  0.5849914131523571  0.7739195199113653  0.9084686942751282  1.0000
  H   H1263     1.0  0.5935158621708718  0.7884639594795378  0.8582032569242606  1.0000
  H   H1264     1.0  0.5733252369582729  0.7544267670082825  0.8620286525460279  1.0000
  C   C1593     1.0  0.8135321812322867  0.8066635164930911  0.8576231993726421  1.0000
  C   C1594     1.0  0.8247409116154883  0.80826532068534  0.8863164642411299  1.0000
  H   H1265     1.0  0.8311205423897201  0.8046990513030642  0.8499985200446144  1.0000
  H   H1266     1.0  0.8038832584768172  0.8293066367458741  0.8509198976346449  1.0000
  H   H1267     1.0  0.8062592902350203  0.814928688868821  0.8926616597093173  1.0000
  H   H1268     1.0  0.8316233384994427  0.7843915608479333  0.8949464523161749  1.0000
  C   C1595     1.0  0.6615277843910099  0.7066340467946393  0.7134443927642277  1.0000
  C   C1596     1.0  0.6285982716549336  0.7045888182499337  0.7096227274161042  1.0000
  H   H1269     1.0  0.665629490462523  0.6876549644540925  0.7008696403108121  1.0000
  H   H1270     1.0  0.665830104096945  0.7298930910582614  0.705618278659432  1.0000
  H   H1271     1.0  0.6250397077253719  0.6893808811855887  0.7240514258705129  1.0000
  H   H1272     1.0  0.6184236692346307  0.6906461633320766  0.6923869980446992  1.0000
  C   C1597     1.0  0.7521799698908768  0.7218415453925416  0.5035328529518024  1.0000
  C   C1598     1.0  0.7513918463344963  0.6955467025408578  0.5224896332850845  1.0000
  H   H1273     1.0  0.7447557946009702  0.745077963278243  0.509428550445906  1.0000
  H   H1274     1.0  0.774642080163478  0.7267356899697496  0.5049149193368485  1.0000
  H   H1275     1.0  0.7509985183503551  0.6713795174508559  0.5141958401627452  1.0000
  H   H1276     1.0  0.7304042163114683  0.6958667068221001  0.5251853155338121  1.0000
  C   C1599     1.0  0.8025880510545599  0.578042565914533  0.7652653542245803  1.0000
  C   C1600     1.0  0.7839511901501505  0.5759065485653102  0.7825962055739036  1.0000
  H   H1277     1.0  0.8030721354991818  0.5541095080418849  0.7565029414351786  1.0000
  H   H1278     1.0  0.8245067629337176  0.5838007724891152  0.7770306372972806  1.0000
  H   H1279     1.0  0.7938752151561037  0.5589818005527497  0.797278562636094  1.0000
  H   H1280     1.0  0.763125757547322  0.5641708125921486  0.771287881022575  1.0000
