data_image0
_chemical_formula_sum              "C800 H640"
_cell_length_a       32.85512929826431
_cell_length_b       32.040681753977125
_cell_length_c       41.77454002789235
_cell_angle_alpha    89.82749999980447
_cell_angle_beta     90.34169999982966
_cell_angle_gamma    91.04219999962066

_space_group_name_H-M_alt    "P 1"
_space_group_IT_number       1

loop_
  _space_group_symop_operation_xyz
  'x, y, z'

loop_
  _atom_site_type_symbol
  _atom_site_label
  _atom_site_symmetry_multiplicity
  _atom_site_fract_x
  _atom_site_fract_y
  _atom_site_fract_z
  _atom_site_occupancy
  C   C1        1.0  0.8153696811567404  0.40536761448404296  0.3397191723168322  1.0000
  C   C2        1.0  0.8468086379460363  0.43482146441718017  0.33918055489791155  1.0000
  C   C3        1.0  0.8454616832496843  0.4687394006725872  0.3583625165770726  1.0000
  C   C4        1.0  0.8138045019122868  0.4753586059690136  0.379402109887711  1.0000
  C   C5        1.0  0.782674081210236  0.44546471735325416  0.3799143948994845  1.0000
  C   C6        1.0  0.7833449457102939  0.4097498518959546  0.3612710506392441  1.0000
  H   H1        1.0  0.8723920269540612  0.43048600038949547  0.3234146245823051  1.0000
  H   H2        1.0  0.8700960629880959  0.4913990799881814  0.35579390995261984  1.0000
  H   H3        1.0  0.7584917476279291  0.4486421502698414  0.3973129344582193  1.0000
  H   H4        1.0  0.7599500454495272  0.385413814894764  0.36303771577330385  1.0000
  C   C7        1.0  0.7450754822089416  0.5373490049764095  0.38611447985506003  1.0000
  C   C8        1.0  0.7712684587746398  0.5311871359285701  0.4116617024982656  1.0000
  C   C9        1.0  0.7627804611009414  0.551576212513106  0.43993313235361214  1.0000
  C   C10       1.0  0.7315668897628663  0.5787536425331905  0.44208281431890434  1.0000
  C   C11       1.0  0.70621136364634  0.5835448663154693  0.4157863149996002  1.0000
  C   C12       1.0  0.7122772322716237  0.563198032574007  0.3879002958306814  1.0000
  C   C13       1.0  0.8146502439594884  0.511387284456873  0.4058542097947033  1.0000
  C   C14       1.0  0.8404694432336174  0.5533331823310953  0.3988210632311971  1.0000
  C   C15       1.0  0.8586524572112098  0.5775040128034938  0.4233820175339791  1.0000
  C   C16       1.0  0.8791487845126894  0.6146645811797901  0.41717235715762274  1.0000
  C   C17       1.0  0.8824715067488805  0.6283022012565673  0.3859469099913958  1.0000
  C   C18       1.0  0.8616084356002736  0.6076400503236173  0.36219507874459245  1.0000
  C   C19       1.0  0.8408938453000256  0.570940555971004  0.36864651849566427  1.0000
  C   C20       1.0  0.8140740640316602  0.4668509225030399  0.4581336134027399  1.0000
  C   C21       1.0  0.8320701855367748  0.44080630198522797  0.47998232976935695  1.0000
  C   C22       1.0  0.8735773101602208  0.4343385030917413  0.4791444804510359  1.0000
  C   C23       1.0  0.8945226861946031  0.4525037006325406  0.4541646014890935  1.0000
  C   C24       1.0  0.8761077067111092  0.47837604700483527  0.4324714857101646  1.0000
  C   C25       1.0  0.8353358465949186  0.485389604952412  0.43426927096176193  1.0000
  C   C26       1.0  0.8985890546881439  0.4055801966756912  0.5029226441049865  1.0000
  C   C27       1.0  0.8666879839513081  0.3936972855019707  0.6033161432814067  1.0000
  C   C28       1.0  0.8812730765268803  0.3602767537425093  0.5871480452930061  1.0000
  C   C29       1.0  0.8874749245044858  0.3628650204855566  0.5548525448545235  1.0000
  C   C30       1.0  0.8824957643650018  0.39967322085958573  0.5378250528510451  1.0000
  C   C31       1.0  0.866590129155136  0.4330857154234752  0.5544671341680959  1.0000
  C   C32       1.0  0.8591134522888433  0.42982306732409253  0.5867961485793113  1.0000
  C   C33       1.0  0.9427814059847247  0.424182265993916  0.5109683914160635  1.0000
  C   C34       1.0  0.9504687627416287  0.4667438428793466  0.5136375399587149  1.0000
  C   C35       1.0  0.9875388041608244  0.4813471449885915  0.5249987767151479  1.0000
  C   C36       1.0  0.016986995972730234  0.4534904677846829  0.5340643063393814  1.0000
  C   C37       1.0  0.011031692422705186  0.4114847032455493  0.5305237945056762  1.0000
  C   C38       1.0  0.9737420512857589  0.39767238977521296  0.5196604796298454  1.0000
  C   C39       1.0  0.9251524024123041  0.353968362430375  0.4592539376340949  1.0000
  C   C40       1.0  0.9198142734026126  0.3204841175589549  0.43930115458207847  1.0000
  C   C41       1.0  0.8863200473817104  0.2940028069172511  0.44201339251824345  1.0000
  C   C42       1.0  0.8561383823216797  0.30398516144339216  0.4627250276671391  1.0000
  C   C43       1.0  0.8606802389928916  0.3386173111929747  0.48215355643140606  1.0000
  C   C44       1.0  0.8956767834141223  0.3640265130476942  0.4813827350585507  1.0000
  H   H5        1.0  0.7494069424519016  0.5228869971330741  0.36298983866939977  1.0000
  H   H6        1.0  0.7842073950809219  0.5489669874675217  0.4596225913341561  1.0000
  H   H7        1.0  0.7266344733870108  0.5974972507287978  0.4630410165529059  1.0000
  H   H8        1.0  0.6927990903195681  0.5670840525557126  0.36653992592388573  1.0000
  H   H9        1.0  0.8590032647342369  0.5658015988396478  0.4480506953205452  1.0000
  H   H10       1.0  0.8945919168600593  0.6301485043076765  0.4366894585641122  1.0000
  H   H11       1.0  0.8621238962950922  0.6206819846778987  0.3382517390821728  1.0000
  H   H12       1.0  0.8256557787627521  0.5557961975302017  0.3484854700416653  1.0000
  H   H13       1.0  0.7823908528313411  0.471569272355088  0.45851184252358196  1.0000
  H   H14       1.0  0.8134823787562896  0.42853679008567297  0.4994324032303807  1.0000
  H   H15       1.0  0.9272132776412678  0.4479237953155483  0.451847349660137  1.0000
  H   H16       1.0  0.8943544223248926  0.49120021142698395  0.4141058286525678  1.0000
  H   H17       1.0  0.8886805778448973  0.3321345748941701  0.5998929303522665  1.0000
  H   H18       1.0  0.8996722832802017  0.3357886806313164  0.5433141628136455  1.0000
  H   H19       1.0  0.8615146540827611  0.4625838107212639  0.5422393218309993  1.0000
  H   H20       1.0  0.8457947227720412  0.4550951022413679  0.5991723799385104  1.0000
  H   H21       1.0  0.9256938449411716  0.4886322414493726  0.5086631088630832  1.0000
  H   H22       1.0  0.9918177025166153  0.5145492680375415  0.5279456124604427  1.0000
  H   H23       1.0  0.03296612995659369  0.38837830267768286  0.5389549525031809  1.0000
  H   H24       1.0  0.9681915538657161  0.36418988913415185  0.5198639573214376  1.0000
  H   H25       1.0  0.9513271659185935  0.3736791886187757  0.4555937330406296  1.0000
  H   H26       1.0  0.9441482159661142  0.31184315000275226  0.423769822075602  1.0000
  H   H27       1.0  0.8291697393856523  0.28430752289309064  0.4639674385134494  1.0000
  H   H28       1.0  0.8362988868166193  0.34704031854154754  0.4983647438133202  1.0000
  C   C45       1.0  0.23665119246184974  0.43041953667749494  0.6790936294855552  1.0000
  C   C46       1.0  0.21939926744999358  0.4601733044261053  0.6991062589174516  1.0000
  C   C47       1.0  0.23924751071748132  0.4976102453666771  0.7039992989364464  1.0000
  C   C48       1.0  0.27759318529260546  0.5059811605020186  0.691089237868717  1.0000
  C   C49       1.0  0.293924297839095  0.47592240975086575  0.6716559213940597  1.0000
  C   C50       1.0  0.27380586263824647  0.4384076792765143  0.6658723672424495  1.0000
  H   H29       1.0  0.19027025132612366  0.4541506002901396  0.7101539006433131  1.0000
  H   H30       1.0  0.2247053753059705  0.519337433361877  0.7193486984480876  1.0000
  H   H31       1.0  0.3225781309348718  0.4811464731504941  0.6596579191557027  1.0000
  H   H32       1.0  0.28643560125980577  0.41615016328007404  0.648785028859091  1.0000
  C   C51       1.0  0.37097594783554116  0.5274912445778407  0.6978207586776276  1.0000
  C   C52       1.0  0.34405538810713415  0.5556445504552309  0.6854349518976477  1.0000
  C   C53       1.0  0.3607291471151574  0.5908824034678657  0.6701118847931538  1.0000
  C   C54       1.0  0.4016148706120088  0.5965696657057245  0.6668658171484586  1.0000
  C   C55       1.0  0.42752951091278046  0.5681006439534333  0.6801924090201533  1.0000
  C   C56       1.0  0.4120141911453743  0.5337218239038796  0.6953550878265686  1.0000
  C   C57       1.0  0.2962423204594438  0.5520945794757289  0.6922358945072192  1.0000
  C   C58       1.0  0.2923646327292735  0.5753242018647763  0.7254721800374165  1.0000
  C   C59       1.0  0.29511477994081775  0.6189913687483802  0.7279929095579653  1.0000
  C   C60       1.0  0.29474481282648585  0.638198252802868  0.7568580155017222  1.0000
  C   C61       1.0  0.2881922145360651  0.6149862496272285  0.7841168446094978  1.0000
  C   C62       1.0  0.28673056667195235  0.5720871241487955  0.7823836934481708  1.0000
  C   C63       1.0  0.28976336655298107  0.5525428953773935  0.753576040029099  1.0000
  C   C64       1.0  0.27763774223541077  0.5608521453708578  0.6324302101654646  1.0000
  C   C65       1.0  0.25142966325055105  0.5735176091819386  0.6089847923836472  1.0000
  C   C66       1.0  0.2168049155189492  0.5945749916878973  0.6165613440764645  1.0000
  C   C67       1.0  0.21156023922525824  0.6075090807565809  0.6474995286192671  1.0000
  C   C68       1.0  0.23669358915460617  0.5946809249122944  0.6710430944640877  1.0000
  C   C69       1.0  0.2711764306108108  0.5710800194192309  0.6641487915019033  1.0000
  C   C70       1.0  0.18592287724843767  0.6088755262942231  0.5891564898017814  1.0000
  C   C71       1.0  0.2786214199905162  0.6922360426639411  0.5488631191561258  1.0000
  C   C72       1.0  0.2648668794409556  0.6579385958640894  0.531806900890305  1.0000
  C   C73       1.0  0.23403307009936436  0.6328746626414748  0.5427970900914817  1.0000
  C   C74       1.0  0.2144662379804764  0.6420157575383979  0.5713438132942765  1.0000
  C   C75       1.0  0.2262054024313886  0.6792323959622393  0.5866070340188902  1.0000
  C   C76       1.0  0.25842708496360783  0.7029772506319736  0.5760884342911686  1.0000
  C   C77       1.0  0.14339056037823977  0.6284728757842347  0.6014561177947341  1.0000
  C   C78       1.0  0.12013766619205724  0.608180195622405  0.62441318911673  1.0000
  C   C79       1.0  0.08892906153213245  0.6284807996560179  0.6397721640491519  1.0000
  C   C80       1.0  0.08147970188415928  0.6696361347631603  0.632128584410869  1.0000
  C   C81       1.0  0.10000001332376814  0.6872454066977084  0.6055759425856783  1.0000
  C   C82       1.0  0.12961258946930343  0.6661483229994832  0.5895203557914522  1.0000
  C   C83       1.0  0.14903344674486352  0.5788315270617291  0.5377867511679219  1.0000
  C   C84       1.0  0.1267753630459169  0.5480755156723903  0.52278206680439  1.0000
  C   C85       1.0  0.12357269065669665  0.5090560311057167  0.5360105106130814  1.0000
  C   C86       1.0  0.14414679404308642  0.5002452041202107  0.5637050213663839  1.0000
  C   C87       1.0  0.16511864392330983  0.5316208225202834  0.5799521165762263  1.0000
  C   C88       1.0  0.1684334401955889  0.5721808932653576  0.5671090834539625  1.0000
  H   H33       1.0  0.35954060680879035  0.5005254274412168  0.7106877303518433  1.0000
  H   H34       1.0  0.3421785435573112  0.6151754274450173  0.6599164555167846  1.0000
  H   H35       1.0  0.41291910506555796  0.624958111631315  0.6558588709609157  1.0000
  H   H36       1.0  0.4312306559701836  0.5121385034664844  0.7071472185181382  1.0000
  H   H37       1.0  0.29876197806524757  0.6376155653152297  0.7071017352694293  1.0000
  H   H38       1.0  0.2959025328641541  0.6720206805725693  0.7575642027843069  1.0000
  H   H39       1.0  0.2846596261188271  0.555544021906679  0.8051827703272834  1.0000
  H   H40       1.0  0.28886941442572206  0.5183839972859153  0.7535209813596092  1.0000
  H   H41       1.0  0.30259543006341644  0.5419555087838535  0.6246860886089832  1.0000
  H   H42       1.0  0.2561082349800933  0.5655571664199388  0.585199447164111  1.0000
  H   H43       1.0  0.18743261104825515  0.6274864210345891  0.654247806414544  1.0000
  H   H44       1.0  0.22907806358621863  0.6056181607028319  0.6943113669614602  1.0000
  H   H45       1.0  0.2817927759357055  0.6493212007653734  0.5108726372082555  1.0000
  H   H46       1.0  0.22775569013235125  0.6040789112911469  0.5294609227990061  1.0000
  H   H47       1.0  0.21264997716591802  0.689085679660273  0.6092552980207052  1.0000
  H   H48       1.0  0.26624570877242065  0.7320235277803914  0.5883880622841213  1.0000
  H   H49       1.0  0.12720179516884172  0.5764966538574817  0.6317886569731502  1.0000
  H   H50       1.0  0.07113251186956336  0.6129865513466678  0.6584442345717348  1.0000
  H   H51       1.0  0.09379839278176094  0.719026767557622  0.5979227875266145  1.0000
  H   H52       1.0  0.14296945131315558  0.6804847939137193  0.5691151341075426  1.0000
  H   H53       1.0  0.1493703836914548  0.6101926658681469  0.526521268619297  1.0000
  H   H54       1.0  0.11149477261471478  0.5536021654294847  0.5001170458162087  1.0000
  H   H55       1.0  0.14255873395774105  0.469262769420094  0.5730578136140417  1.0000
  H   H56       1.0  0.17661732945362008  0.5244023613707093  0.6034238667651908  1.0000
  C   C89       1.0  0.4443077843966112  0.763039525096122  0.38214068023102316  1.0000
  C   C90       1.0  0.46846882520970884  0.7288003230059186  0.3876321840488186  1.0000
  C   C91       1.0  0.5055788153903792  0.7340634351703289  0.4024286030103679  1.0000
  C   C92       1.0  0.5221011603928449  0.7734455856659301  0.4080182548911667  1.0000
  C   C93       1.0  0.49717819208352604  0.8071324458121838  0.40248126782466237  1.0000
  C   C94       1.0  0.45837724892108933  0.8019382886063873  0.39090937181105145  1.0000
  H   H57       1.0  0.45846539656449786  0.6977522769119707  0.3813315571750446  1.0000
  H   H58       1.0  0.5209587634049021  0.705923104797161  0.4080876766918276  1.0000
  H   H59       1.0  0.5065892876235002  0.8384507482464885  0.4083055175145911  1.0000
  H   H60       1.0  0.43828770694772773  0.8274916752009147  0.3891570698081629  1.0000
  C   C95       1.0  0.5911453466917763  0.8394946004760796  0.38900625693086516  1.0000
  C   C96       1.0  0.5891386735668659  0.8231203880461188  0.4199659861704246  1.0000
  C   C97       1.0  0.6123249458026764  0.8438245688875046  0.44333480058599545  1.0000
  C   C98       1.0  0.6329253452085953  0.8803342739906755  0.4367181848264546  1.0000
  C   C99       1.0  0.6353488417996243  0.8946199891749694  0.4058063326907993  1.0000
  C   C100      1.0  0.6146858442558437  0.874134697302967  0.38233697635702985  1.0000
  C   C101      1.0  0.5642939138610621  0.7804544001019683  0.4267382025176536  1.0000
  C   C102      1.0  0.5997319071486629  0.7472880638693303  0.42010961748213665  1.0000
  C   C103      1.0  0.6321279110082678  0.741024891741436  0.4410821828473095  1.0000
  C   C104      1.0  0.6610813018417747  0.712403548414829  0.4344488101014022  1.0000
  C   C105      1.0  0.6590306824883964  0.6901912609114103  0.40623722662593575  1.0000
  C   C106      1.0  0.628675375506858  0.6966615697635483  0.38497021707175305  1.0000
  C   C107      1.0  0.599084403208159  0.7256695773688252  0.39171131330144443  1.0000
  C   C108      1.0  0.5341156433199795  0.8112910506844457  0.47899127371854294  1.0000
  C   C109      1.0  0.5234096521922083  0.8085528182231528  0.5104968019426086  1.0000
  C   C110      1.0  0.5278836310003824  0.7709695722140926  0.5269377994232622  1.0000
  C   C111      1.0  0.5373690001924695  0.7367306510538212  0.5092639665170792  1.0000
  C   C112      1.0  0.5464837360008814  0.7393078859081196  0.47740893543451385  1.0000
  C   C113      1.0  0.5480757524338696  0.7770976434227815  0.462488036002814  1.0000
  C   C114      1.0  0.519738400280242  0.7664956454499915  0.5642460326404998  1.0000
  C   C115      1.0  0.554638341827  0.8696564752569963  0.6269506756236451  1.0000
  C   C116      1.0  0.526726102531571  0.8398480237304039  0.6362292583602517  1.0000
  C   C117      1.0  0.5158468679918778  0.8088406438706345  0.6158862769114172  1.0000
  C   C118      1.0  0.5331259300175288  0.8052997249863851  0.5856590673615899  1.0000
  C   C119      1.0  0.5633885693780165  0.8343471982310047  0.577850311714838  1.0000
  C   C120      1.0  0.573843884917751  0.8661393825308967  0.5978509718707584  1.0000
  C   C121      1.0  0.5509884622421993  0.7349931942682257  0.5790328761812683  1.0000
  C   C122      1.0  0.5913182980194219  0.7354153554155802  0.5705873550525924  1.0000
  C   C123      1.0  0.6177836790113157  0.705533350414353  0.5819797119265631  1.0000
  C   C124      1.0  0.6034525183401019  0.6743854011334852  0.6012478523927514  1.0000
  C   C125      1.0  0.5635921400466425  0.6745190387369436  0.6112996503574084  1.0000
  C   C126      1.0  0.5385737996843883  0.7050525730010706  0.6009629836245222  1.0000
  C   C127      1.0  0.45952376355835  0.7136748204186063  0.5571147380139904  1.0000
  C   C128      1.0  0.4191502291237695  0.7019620360648118  0.5573086402848018  1.0000
  C   C129      1.0  0.39075161556189536  0.730935865203342  0.5648325271633244  1.0000
  C   C130      1.0  0.40149883218098686  0.7715565637357433  0.5689595335198543  1.0000
  C   C131      1.0  0.44228051393281315  0.7832880955034348  0.5687608435386525  1.0000
  C   C132      1.0  0.472758651429834  0.7543047159626228  0.5637600800358736  1.0000
  H   H61       1.0  0.5761743233222236  0.8228386649632369  0.3698673846452178  1.0000
  H   H62       1.0  0.6142625616104017  0.8310567780840997  0.46742416541532245  1.0000
  H   H63       1.0  0.6518311786364177  0.894719208132454  0.4554644648600886  1.0000
  H   H64       1.0  0.6187811075918617  0.8834322548105045  0.3571775582554471  1.0000
  H   H65       1.0  0.6334870029929127  0.7586533051725252  0.4630769243808339  1.0000
  H   H66       1.0  0.6847379776430447  0.7070177715734302  0.45123452273016507  1.0000
  H   H67       1.0  0.6277135611074317  0.6795709869267635  0.36273130230831785  1.0000
  H   H68       1.0  0.5769554814042643  0.7320727887781964  0.373326505402286  1.0000
  H   H69       1.0  0.5327808591641356  0.8412317534862052  0.46693581895550107  1.0000
  H   H70       1.0  0.5147313589881427  0.8368103176391759  0.5233637736168243  1.0000
  H   H71       1.0  0.5391863011260792  0.7060108885510727  0.5201440383792764  1.0000
  H   H72       1.0  0.5532416491148974  0.7111716783622296  0.4654851427072081  1.0000
  H   H73       1.0  0.5126489924783224  0.8413988534458681  0.659473592305672  1.0000
  H   H74       1.0  0.4930986885407254  0.7861237663580737  0.6244945801933669  1.0000
  H   H75       1.0  0.5811279108698937  0.8325252468385959  0.5561356512391523  1.0000
  H   H76       1.0  0.59662757959928  0.888529226856348  0.5898746463603424  1.0000
  H   H77       1.0  0.6029041406400975  0.7593481101037738  0.5549602683383077  1.0000
  H   H78       1.0  0.6480350474907886  0.702728487224749  0.5725359531814875  1.0000
  H   H79       1.0  0.5511178035967121  0.6490628595938215  0.6253060971045408  1.0000
  H   H80       1.0  0.5074269653908529  0.7055156042076238  0.6105838876540427  1.0000
  H   H81       1.0  0.4818986488818461  0.6908380056899215  0.5520517342761361  1.0000
  H   H82       1.0  0.41143034614126534  0.6689497067971323  0.5537011005056309  1.0000
  H   H83       1.0  0.3787685453695372  0.7945976518827612  0.5728351850808879  1.0000
  H   H84       1.0  0.450205280124811  0.8156431598301838  0.5728280035153023  1.0000
  C   C133      1.0  0.5019563643205129  0.5091293352123524  0.655190985361454  1.0000
  C   C134      1.0  0.528618867087225  0.49927960339254224  0.6794359507784692  1.0000
  C   C135      1.0  0.5372544099589952  0.4589416383159823  0.6863805246997529  1.0000
  C   C136      1.0  0.5163231809961134  0.4263826675647114  0.671033519043307  1.0000
  C   C137      1.0  0.4887743183272322  0.4371053728477757  0.6470686346841305  1.0000
  C   C138      1.0  0.48083227584479915  0.47822479428827436  0.6398415858498129  1.0000
  H   H85       1.0  0.5437386922352994  0.5233254541438683  0.6924824615923251  1.0000
  H   H86       1.0  0.5594689803240862  0.45263576123388183  0.7037910335344637  1.0000
  H   H87       1.0  0.4737063609940158  0.41349399726709973  0.6322195509082867  1.0000
  H   H88       1.0  0.45951498907465405  0.4855483234048127  0.6207745292200215  1.0000
  C   C139      1.0  0.4538748289892394  0.3527857708773126  0.6760199194149146  1.0000
  C   C140      1.0  0.49427820483326174  0.34597805845577684  0.6684960325363918  1.0000
  C   C141      1.0  0.5047457218983343  0.3058534111567777  0.6592461760621278  1.0000
  C   C142      1.0  0.4760681999512907  0.2748416244045425  0.6563137034480041  1.0000
  C   C143      1.0  0.4361533530975994  0.2827194095840442  0.661939263156731  1.0000
  C   C144      1.0  0.42516603029189703  0.3219421884797486  0.6717804018642103  1.0000
  C   C145      1.0  0.5277277306490099  0.37881697640060913  0.6783323835334807  1.0000
  C   C146      1.0  0.5342350416397179  0.36615072425316325  0.7151809965532392  1.0000
  C   C147      1.0  0.5562408242906092  0.33120485610524214  0.7242872217157911  1.0000
  C   C148      1.0  0.5577598834178428  0.31856782147973295  0.7558908980028601  1.0000
  C   C149      1.0  0.5392405885934773  0.34150771071235336  0.7790801732787909  1.0000
  C   C150      1.0  0.5181996985253478  0.37645202035060416  0.7703856912098138  1.0000
  C   C151      1.0  0.515041661281197  0.38738554117583585  0.7385569925343958  1.0000
  C   C152      1.0  0.5676934375175151  0.3785062079695094  0.6251864043447806  1.0000
  C   C153      1.0  0.6004751638878792  0.39277093762710386  0.6080655519886893  1.0000
  C   C154      1.0  0.6369195681174854  0.40629644918604396  0.6221270574053112  1.0000
  C   C155      1.0  0.6390894013220126  0.40316712156684426  0.654695457336047  1.0000
  C   C156      1.0  0.6058016291289439  0.38919585825277025  0.6726302204585073  1.0000
  C   C157      1.0  0.5684761946091438  0.37895982012785306  0.6579127987183997  1.0000
  C   C158      1.0  0.671853388676014  0.4340690212828874  0.6039433333425498  1.0000
  C   C159      1.0  0.6839896974877896  0.4264558588607893  0.49748141124629036  1.0000
  C   C160      1.0  0.6943606140081958  0.46208575839605026  0.5138314422295263  1.0000
  C   C161      1.0  0.6913848907830946  0.46478834439492467  0.5461724259167178  1.0000
  C   C162      1.0  0.6737579827044252  0.43253901852865506  0.5644758427392393  1.0000
  C   C163      1.0  0.6614832540183232  0.39829427108187887  0.5466918924940768  1.0000
  C   C164      1.0  0.6655938326637015  0.3950075568034297  0.5144562384354743  1.0000
  C   C165      1.0  0.7137640459510243  0.415804192446978  0.616484740710218  1.0000
  C   C166      1.0  0.7347162810132092  0.4304666635085633  0.6435520614023774  1.0000
  C   C167      1.0  0.7681943471949152  0.4112654108643135  0.6552580133069197  1.0000
  C   C168      1.0  0.7833200412889199  0.37711165043851264  0.6406507089057915  1.0000
  C   C169      1.0  0.7636638217554873  0.36126826899163944  0.6146630169066686  1.0000
  C   C170      1.0  0.7293709285684121  0.3807904068660701  0.6031246348657905  1.0000
  C   C171      1.0  0.6940487735900748  0.5141810973240093  0.6169659056044537  1.0000
  C   C172      1.0  0.6835772917327823  0.5547351197536444  0.6246884824641784  1.0000
  C   C173      1.0  0.6433561025722992  0.5649589888405699  0.6277765556659901  1.0000
  C   C174      1.0  0.6145037134710974  0.5349126517720757  0.6232066860983477  1.0000
  C   C175      1.0  0.6249168834398903  0.4955827203936584  0.6153668103340582  1.0000
  C   C176      1.0  0.6649370601357482  0.4823427059243404  0.6132961255902076  1.0000
  H   H89       1.0  0.4435842717084536  0.3822661743477555  0.6841350885266525  1.0000
  H   H90       1.0  0.5372401091715547  0.29780998772230305  0.6572185807117908  1.0000
  H   H91       1.0  0.48469903953198823  0.24329870140529902  0.6488879646324848  1.0000
  H   H92       1.0  0.3934052300806528  0.3286575048775571  0.6773245704963002  1.0000
  H   H93       1.0  0.5704114290738818  0.3113004712818556  0.7073363330785591  1.0000
  H   H94       1.0  0.5740364903512063  0.2906666443169112  0.7620335304337508  1.0000
  H   H95       1.0  0.5033947425227047  0.39583730387137794  0.7875807530769564  1.0000
  H   H96       1.0  0.4967403905385622  0.4129187034043808  0.7322515779502312  1.0000
  H   H97       1.0  0.539231522529745  0.3722583400900943  0.6124271561543491  1.0000
  H   H98       1.0  0.596790071796625  0.39809643099031256  0.5824656645311893  1.0000
  H   H99       1.0  0.6636094779981736  0.4154604912886173  0.6685271526539295  1.0000
  H   H100      1.0  0.608983235017102  0.39133071204129766  0.6982708034543258  1.0000
  H   H101      1.0  0.7083414606663734  0.48837224228497106  0.5014815432774744  1.0000
  H   H102      1.0  0.7035844205959149  0.49203370546135383  0.5567652351554907  1.0000
  H   H103      1.0  0.6505097618089525  0.3712202372387071  0.5601094508631892  1.0000
  H   H104      1.0  0.6545416236856816  0.36720294923787394  0.5023433311477474  1.0000
  H   H105      1.0  0.7234223046652095  0.4557228414986071  0.6584681731236868  1.0000
  H   H106      1.0  0.7846139584921618  0.425040659895192  0.6750887097439807  1.0000
  H   H107      1.0  0.7756929314061715  0.3362618692548798  0.6013819082836828  1.0000
  H   H108      1.0  0.7152358427693967  0.3657777333776838  0.5828103796792985  1.0000
  H   H109      1.0  0.7253278435381457  0.5067844723555482  0.6141100363565767  1.0000
  H   H110      1.0  0.707302857713983  0.5787885093577656  0.6258471083786565  1.0000
  H   H111      1.0  0.5823972163607422  0.5411464070082395  0.6240253845751071  1.0000
  H   H112      1.0  0.5992988023346435  0.4756362875243101  0.6086999236154181  1.0000
  C   C177      1.0  0.7618328897147062  0.213372041106912  0.3262058597399117  1.0000
  C   C178      1.0  0.7286693532602573  0.18704393326432073  0.32761584044988623  1.0000
  C   C179      1.0  0.7264387172592435  0.15719390622227378  0.3509295961959675  1.0000
  C   C180      1.0  0.7587260760873403  0.1509325136934245  0.37242162813849927  1.0000
  C   C181      1.0  0.791272897839843  0.17918323271103942  0.37108106922918566  1.0000
  C   C182      1.0  0.7928136984439127  0.2086020225696687  0.34731248099601586  1.0000
  H   H113      1.0  0.7025825905152866  0.19010752439591452  0.31208450794340964  1.0000
  H   H114      1.0  0.6976957554899205  0.14088354921388643  0.3531439122515302  1.0000
  H   H115      1.0  0.8155476401145716  0.17784042583132115  0.38887220103993375  1.0000
  H   H116      1.0  0.8196581265261205  0.2284679806605919  0.3453040364872406  1.0000
  C   C183      1.0  0.8234335870543166  0.08688273435571536  0.3788467354824239  1.0000
  C   C184      1.0  0.7996718455613969  0.0948494288190355  0.40518632419524175  1.0000
  C   C185      1.0  0.8114376831471761  0.07703285615147541  0.4338910418409199  1.0000
  C   C186      1.0  0.8435753513333447  0.05056932157549832  0.4355356203600243  1.0000
  C   C187      1.0  0.8661088929869262  0.04158430113596667  0.4086286879659435  1.0000
  C   C188      1.0  0.8566356216202172  0.0620650292647181  0.380534403395042  1.0000
  C   C189      1.0  0.7574639311534968  0.11771325333925285  0.40088696026465725  1.0000
  C   C190      1.0  0.7259396009484914  0.07912478534406228  0.397887459705068  1.0000
  C   C191      1.0  0.7096678065214848  0.061136766716796194  0.4258692330817949  1.0000
  C   C192      1.0  0.683175468386813  0.02742432231440106  0.4252899201245558  1.0000
  C   C193      1.0  0.6718160770461872  0.01027659113586532  0.3967072890938329  1.0000
  C   C194      1.0  0.6882150688444686  0.026237535894635178  0.3693694627646156  1.0000
  C   C195      1.0  0.7155974077133721  0.058514364685761516  0.3694580354068381  1.0000
  C   C196      1.0  0.7658515848586418  0.16354439951806066  0.45293894762914955  1.0000
  C   C197      1.0  0.748675637925337  0.18883993438102023  0.47477569471979064  1.0000
  C   C198      1.0  0.7072869218935107  0.19839608927559835  0.4731670240286142  1.0000
  C   C199      1.0  0.6843511307110337  0.1845567968582475  0.447907064008833  1.0000
  C   C200      1.0  0.7020027789130469  0.161221755360886  0.4256154844311034  1.0000
  C   C201      1.0  0.7417945825936749  0.1476583629466628  0.42749944846972815  1.0000
  C   C202      1.0  0.6870780424858077  0.22847973720009443  0.49806311805872466  1.0000
  C   C203      1.0  0.717533053254745  0.22471281663355727  0.5992082877664384  1.0000
  C   C204      1.0  0.701018880227266  0.25964205540609053  0.5858362126460349  1.0000
  C   C205      1.0  0.6936120082721013  0.2611340021084145  0.55363167870497  1.0000
  C   C206      1.0  0.7026404764129747  0.22768167178632928  0.534071487904967  1.0000
  C   C207      1.0  0.7194363982402278  0.19376907926327697  0.5477020993864524  1.0000
  C   C208      1.0  0.7275896394372866  0.1915733583583863  0.5800359015080583  1.0000
  C   C209      1.0  0.6398136466181377  0.21897808435591623  0.5043230493941803  1.0000
  C   C210      1.0  0.6293653949597059  0.17748815050300099  0.5087421060845249  1.0000
  C   C211      1.0  0.5900058641942443  0.16535409253801375  0.5164048365643694  1.0000
  C   C212      1.0  0.5610996857957286  0.19540520843055795  0.5207018066397586  1.0000
  C   C213      1.0  0.5716652059688956  0.2369139001167447  0.5168524874858724  1.0000
  C   C214      1.0  0.6099336961925914  0.248754972883022  0.5080837959058441  1.0000
  C   C215      1.0  0.6740436407016644  0.2885607126287956  0.45767878091565134  1.0000
  C   C216      1.0  0.6834362363199253  0.32689118442796206  0.44546293785453084  1.0000
  C   C217      1.0  0.7161935471663996  0.34948032306387666  0.45823176146574324  1.0000
  C   C218      1.0  0.7432562207762562  0.3309505748643539  0.47808639645475626  1.0000
  C   C219      1.0  0.7350459709080779  0.29191087906506225  0.490139457362603  1.0000
  C   C220      1.0  0.6985576709626722  0.2714010134696775  0.4814090674656979  1.0000
  H   H117      1.0  0.8145076558816646  0.09719467102431902  0.3548746695576619  1.0000
  H   H118      1.0  0.7942617929555664  0.08406688716919666  0.455102992725613  1.0000
  H   H119      1.0  0.8506529253755599  0.0364059146786202  0.458040253050127  1.0000
  H   H120      1.0  0.8725116439771552  0.05554581183783855  0.3588915585752124  1.0000
  H   H121      1.0  0.7174113444249022  0.0736682630124426  0.4491973519590474  1.0000
  H   H122      1.0  0.6714087733224546  0.016141038550108178  0.44808660314847326  1.0000
  H   H123      1.0  0.677685953690966  0.012926197015148855  0.34738190279667674  1.0000
  H   H124      1.0  0.728694761217968  0.06816714898496905  0.3469390395855642  1.0000
  H   H125      1.0  0.7978316313862147  0.15753231726935032  0.4549952692418288  1.0000
  H   H126      1.0  0.7666941537055092  0.20259539442564672  0.4939792010957085  1.0000
  H   H127      1.0  0.6525436961368419  0.19079234257239688  0.4456137507318286  1.0000
  H   H128      1.0  0.6819310041095724  0.14978047373034448  0.40677823790005163  1.0000
  H   H129      1.0  0.6927238752930938  0.2867843220004534  0.6000796510574923  1.0000
  H   H130      1.0  0.6803648425120833  0.2891996472856848  0.5436229701338267  1.0000
  H   H131      1.0  0.7239677047972176  0.16509829813888624  0.5335951107211215  1.0000
  H   H132      1.0  0.7383042346398387  0.1624021322440455  0.590190635246109  1.0000
  H   H133      1.0  0.6529935144681451  0.15363182349216753  0.5079712847116695  1.0000
  H   H134      1.0  0.5830235933157335  0.13238108435074517  0.520469602685824  1.0000
  H   H135      1.0  0.5502138400363663  0.261835367921453  0.5208214993995188  1.0000
  H   H136      1.0  0.6155073140079057  0.282056286429585  0.507339306940136  1.0000
  H   H137      1.0  0.6473770165353633  0.2710200581861508  0.4491973519590474  1.0000
  H   H138      1.0  0.6642491954498054  0.34192993128670385  0.4283755994711724  1.0000
  H   H139      1.0  0.7697910489975993  0.3484585391282911  0.48572040067225836  1.0000
  H   H140      1.0  0.7573233687666809  0.278158321236233  0.5059604463476991  1.0000
  C   C221      1.0  0.35457562609713805  0.20201309164803616  0.6940001657860838  1.0000
  C   C222      1.0  0.3693224608059529  0.16687114538580872  0.7088085540236091  1.0000
  C   C223      1.0  0.34760264757633647  0.1300918168739676  0.7069102268538131  1.0000
  C   C224      1.0  0.31006567058351303  0.12749383715985038  0.6913836820577269  1.0000
  C   C225      1.0  0.2940885123636785  0.16389017116005622  0.679009844553723  1.0000
  C   C226      1.0  0.3166896077659696  0.20089121842443064  0.6795652189590101  1.0000
  H   H141      1.0  0.39868636215069725  0.1677346726354188  0.7206557433846682  1.0000
  H   H142      1.0  0.36140303986245875  0.10217896719809288  0.7164664967930632  1.0000
  H   H143      1.0  0.266551454870076  0.1625479170561191  0.6653169928371624  1.0000
  H   H144      1.0  0.30619703957026023  0.22812951911995277  0.6659633337398672  1.0000
  C   C227      1.0  0.21269010710442177  0.10419796494325681  0.6937105093074643  1.0000
  C   C228      1.0  0.24084388393806494  0.08122205012954341  0.6773173889307146  1.0000
  C   C229      1.0  0.22613208653966094  0.05310316878056675  0.6547959992542456  1.0000
  C   C230      1.0  0.1854230813679628  0.04885649535387311  0.6483948304622729  1.0000
  C   C231      1.0  0.15811452645395077  0.06852417028854212  0.6672679848212527  1.0000
  C   C232      1.0  0.17145998901164003  0.09774289871184305  0.6891789414229451  1.0000
  C   C233      1.0  0.2879240686721139  0.08282327452741262  0.6870005331953104  1.0000
  C   C234      1.0  0.28679441499469555  0.05663502605910776  0.7196622934786591  1.0000
  C   C235      1.0  0.27985264275490607  0.014283798252641366  0.7202104863183605  1.0000
  C   C236      1.0  0.2786863206319746  0.9924729943682155  0.7483933435314846  1.0000
  C   C237      1.0  0.2804272413723178  0.012835458504234065  0.7770980611771628  1.0000
  C   C238      1.0  0.28615496704051446  0.055228144915204995  0.7772249355025086  1.0000
  C   C239      1.0  0.2875569457982674  0.0772137120293032  0.7487236955484226  1.0000
  C   C240      1.0  0.31675791061751296  0.08160884315043095  0.6292296257694783  1.0000
  C   C241      1.0  0.34286330231299966  0.0685237395274548  0.6064377304559514  1.0000
  C   C242      1.0  0.3741822468105376  0.04106404875668668  0.6136982932630017  1.0000
  C   C243      1.0  0.3748000829182301  0.025161896933644012  0.6444713017973354  1.0000
  C   C244      1.0  0.3470607591935588  0.03724654422542795  0.6672631971108623  1.0000
  C   C245      1.0  0.31767444030887076  0.06596918728898961  0.6598446398609285  1.0000
  C   C246      1.0  0.4052795524226224  0.02346265552884419  0.5878638079963718  1.0000
  C   C247      1.0  0.300246912032213  0.9515181318544925  0.5571051625932095  1.0000
  C   C248      1.0  0.31254307622310434  0.9854458768059539  0.5398837683189197  1.0000
  C   C249      1.0  0.34974356038311455  0.003929223077947519  0.5454829956204993  1.0000
  C   C250      1.0  0.3746177033984968  0.9915808252409681  0.5709296763455063  1.0000
  C   C251      1.0  0.36299524732037547  0.9546393043893094  0.5860684165999697  1.0000
  C   C252      1.0  0.3265530518494012  0.9349957251633608  0.579384772894963  1.0000
  C   C253      1.0  0.44459266483488624  0.0018657932746894978  0.6024088721624248  1.0000
  C   C254      1.0  0.4651482908925586  0.0205781270805927  0.6275060500289322  1.0000
  C   C255      1.0  0.49436404602976364  0.9995887571453694  0.644844743207787  1.0000
  C   C256      1.0  0.5026301776127368  0.9582606812701762  0.6370982277961104  1.0000
  C   C257      1.0  0.485062789702433  0.9409613171279383  0.6098154601363827  1.0000
  C   C258      1.0  0.4576397267599938  0.9627713372103806  0.59256055188936  1.0000
  C   C259      1.0  0.4445044185428154  0.05003195792285743  0.537834628271826  1.0000
  C   C260      1.0  0.46663509817844956  0.0801073236139364  0.5212930888729738  1.0000
  C   C261      1.0  0.4687137958940928  0.12038544236902034  0.5322210378390752  1.0000
  C   C262      1.0  0.4466493088191214  0.13145253457684614  0.5587880427954371  1.0000
  C   C263      1.0  0.4249795088621707  0.1014438771504692  0.5749417776526664  1.0000
  C   C264      1.0  0.4244237029074485  0.060045202177145214  0.5659720022362411  1.0000
  H   H145      1.0  0.22366323318798595  0.12472994051014497  0.7129283788145533  1.0000
  H   H146      1.0  0.24671915087845714  0.03333813886984904  0.6425825500483202  1.0000
  H   H147      1.0  0.17436581829884  0.026299191737944705  0.6309986847587333  1.0000
  H   H148      1.0  0.14979049290188973  0.1124060765573154  0.704513977803415  1.0000
  H   H149      1.0  0.27609662200147356  0.9979688183099825  0.6975861608684977  1.0000
  H   H150      1.0  0.2710322151032238  0.9593060329118287  0.7468780331929211  1.0000
  H   H151      1.0  0.2882345278252833  0.07324398058659061  0.7988797495983142  1.0000
  H   H152      1.0  0.29073537611976047  0.1107122222704105  0.7503108215428421  1.0000
  H   H153      1.0  0.2946566899765674  0.10498484901497578  0.6227207334937216  1.0000
  H   H154      1.0  0.3395007742976335  0.08120287291454581  0.5816900554479435  1.0000
  H   H155      1.0  0.394784551887773  0.00039273939027872906  0.6518060741154371  1.0000
  H   H156      1.0  0.3503392809804252  0.023973823678979933  0.6911514781037923  1.0000
  H   H157      1.0  0.291810317976436  0.9986828014698803  0.5229783629303966  1.0000
  H   H158      1.0  0.3575756539825522  0.0326132058128632  0.5322689149429792  1.0000
  H   H159      1.0  0.3807636914177576  0.9425353432995962  0.6054897637986509  1.0000
  H   H160      1.0  0.3181390986063875  0.9093154922222969  0.5948562590215596  1.0000
  H   H161      1.0  0.4554620334044682  0.051452243363581854  0.6353171995308794  1.0000
  H   H162      1.0  0.5064634319199923  0.01621725111751826  0.6654606241488745  1.0000
  H   H163      1.0  0.4897721683706682  0.9092233453648513  0.6018822240194802  1.0000
  H   H164      1.0  0.4455835051401052  0.9475617615094587  0.5723109307931384  1.0000
  H   H165      1.0  0.44453083133823984  0.01795007778175206  0.5309403253096416  1.0000
  H   H166      1.0  0.4821800249546915  0.07049939680551211  0.5005407581857597  1.0000
  H   H167      1.0  0.44746468986463195  0.1624192269475299  0.5681911060021941  1.0000
  H   H168      1.0  0.4115630235019172  0.11136397376906908  0.5970921197738791  1.0000
  C   C265      1.0  0.13145959775174304  0.8432413015326988  0.3656925011847839  1.0000
  C   C266      1.0  0.1102695933803894  0.879191230045636  0.3684167083969248  1.0000
  C   C267      1.0  0.07442472124421652  0.8795282575984207  0.3849367030990202  1.0000
  C   C268      1.0  0.05560746986964786  0.8420065092782976  0.39502680274680047  1.0000
  C   C269      1.0  0.07817767932169888  0.8060935727032296  0.39160119596246507  1.0000
  C   C270      1.0  0.116527684098018  0.8067187659029496  0.37899754835972177  1.0000
  H   H169      1.0  0.12361532526919455  0.9085163398975128  0.3590064636245821  1.0000
  H   H170      1.0  0.06114122603035536  0.9094307089460506  0.3887596898457592  1.0000
  H   H171      1.0  0.06648410302016601  0.7760159295171283  0.40025019478273327  1.0000
  H   H172      1.0  0.1320064799918751  0.7769304526861209  0.3771830061217579  1.0000
  C   C271      1.0  0.9801094064903414  0.7875406145541644  0.3755288521818727  1.0000
  C   C272      1.0  0.9861220002260193  0.7985688917246334  0.4069075060805926  1.0000
  C   C273      1.0  0.9635051536361324  0.7765667627427887  0.4295581639376026  1.0000
  C   C274      1.0  0.9348209652682761  0.7473213452843531  0.42121318472712527  1.0000
  C   C275      1.0  0.9277870063973486  0.7382801218260199  0.3893725167757312  1.0000
  C   C276      1.0  0.9510053302860645  0.758438385114236  0.36646571641283443  1.0000
  C   C277      1.0  0.01361112174086454  0.8396631595311749  0.41457263041563236  1.0000
  C   C278      1.0  0.9802464373857617  0.8745934199334663  0.4071157714825752  1.0000
  C   C279      1.0  0.9484516983245466  0.8811798965395834  0.4285551386108126  1.0000
  C   C280      1.0  0.9186703239952895  0.9083948893597763  0.4216057769791385  1.0000
  C   C281      1.0  0.9212515436914469  0.9341307212221108  0.3947443278337665  1.0000
  C   C282      1.0  0.9522588572760116  0.9292386973160904  0.37427447205958636  1.0000
  C   C283      1.0  0.980476990655152  0.8994302775097411  0.3794212607292726  1.0000
  C   C284      1.0  0.0445813542120841  0.8089396139529236  0.46851097567394456  1.0000
  C   C285      1.0  0.056086435058003405  0.8143409667482144  0.5003899453084618  1.0000
  C   C286      1.0  0.05545014813787974  0.8533025281965086  0.5148344675563162  1.0000
  C   C287      1.0  0.04780886728594827  0.8864789540040653  0.4948816845042999  1.0000
  C   C288      1.0  0.03472357244187959  0.8815560317658082  0.4644318464213188  1.0000
  C   C289      1.0  0.0300720863377496  0.8420512347767052  0.45083474891256614  1.0000
  C   C290      1.0  0.06373200775997519  0.8605084124461191  0.5524132064106118  1.0000
  C   C291      1.0  0.030115438437295302  0.7586129060225629  0.6180694728494422  1.0000
  C   C292      1.0  0.05855399674197036  0.7886104717170801  0.6281021199725377  1.0000
  C   C293      1.0  0.0703776845864247  0.82052616792111  0.607225308815173  1.0000
  C   C294      1.0  0.05304950934521971  0.8238242720976181  0.5770747026315923  1.0000
  C   C295      1.0  0.02090105561665423  0.7965293241605194  0.5705107516863459  1.0000
  C   C296      1.0  0.010440947579490878  0.7634001248025399  0.5895323250674283  1.0000
  C   C297      1.0  0.034248774053184494  0.8957635902361141  0.5655004127627862  1.0000
  C   C298      1.0  0.9936370575852131  0.896404409296009  0.5561907099086421  1.0000
  C   C299      1.0  0.9723507124809794  0.9323180888815014  0.5594200205669707  1.0000
  C   C300      1.0  0.9889433454110782  0.9664261587133615  0.5753774592981934  1.0000
  C   C301      1.0  0.02632325191895246  0.9624532745175315  0.5891732467881478  1.0000
  C   C302      1.0  0.04787807061758985  0.926126499426907  0.5862216233324626  1.0000
  C   C303      1.0  0.12368862438786944  0.9111455081110418  0.5402189080462481  1.0000
  C   C304      1.0  0.16427396424052637  0.9206716816447237  0.5363049548020914  1.0000
  C   C305      1.0  0.19353980658646153  0.8914862803555643  0.5409681847223465  1.0000
  C   C306      1.0  0.1813908540665214  0.8525989926974413  0.5514341196357737  1.0000
  C   C307      1.0  0.14054090090151158  0.8430377753629783  0.5555347935851565  1.0000
  C   C308      1.0  0.11084996924341343  0.8723720641017112  0.5502970384180523  1.0000
  H   H173      1.0  0.9964332846691113  0.803423167201779  0.3565312173527423  1.0000
  H   H174      1.0  0.9673416147449896  0.7861121412313713  0.454382442311857  1.0000
  H   H175      1.0  0.9166235812593615  0.7320207371931075  0.4390330428002158  1.0000
  H   H176      1.0  0.9478757150060909  0.7506898588068956  0.3419478515035661  1.0000
  H   H177      1.0  0.9454177932182936  0.8633233426893846  0.4503392208871592  1.0000
  H   H178      1.0  0.8932114432268782  0.9126329465713682  0.4383651572007542  1.0000
  H   H179      1.0  0.9548012996763819  0.9485168696435776  0.35379264700943014  1.0000
  H   H180      1.0  0.002174481578445908  0.8944262810688126  0.36131892774314817  1.0000
  H   H181      1.0  0.045818569869968365  0.778141359712851  0.4580689793124695  1.0000
  H   H182      1.0  0.06555268129943412  0.7868635644898657  0.5139894366724097  1.0000
  H   H183      1.0  0.04905565805060124  0.9184265542920947  0.5035115324830065  1.0000
  H   H184      1.0  0.02948875910185055  0.9092106872443501  0.45018601415466625  1.0000
  H   H185      1.0  0.07124888821705222  0.7873722770275392  0.6525625323571211  1.0000
  H   H186      1.0  0.09224938957201036  0.8440351893389206  0.6144786900566379  1.0000
  H   H187      1.0  0.003770500206726757  0.8004982985045631  0.5486763984509  1.0000
  H   H188      1.0  0.9863960682612392  0.742440960080092  0.5815727565433786  1.0000
  H   H189      1.0  0.9793601709880376  0.8712765138130278  0.5428449671953857  1.0000
  H   H190      1.0  0.9426733457410496  0.9334882165724091  0.549643515949762  1.0000
  H   H191      1.0  0.03993245505474832  0.9873526037759623  0.6035268025385846  1.0000
  H   H192      1.0  0.07759736461854187  0.9246416571116736  0.5974990751570636  1.0000
  H   H193      1.0  0.10245812505123762  0.9356260651153949  0.5357328234104378  1.0000
  H   H194      1.0  0.17298068132551647  0.952432238217866  0.5308493588122238  1.0000
  H   H195      1.0  0.20341877473060574  0.8296352047718887  0.5568250815353708  1.0000
  H   H196      1.0  0.13196640991060313  0.8118841855648088  0.5639228621891473  1.0000
  C   C309      1.0  0.08733544343821882  0.12575475771689723  0.6413425330572051  1.0000
  C   C310      1.0  0.06264816044968052  0.13919762660113416  0.6650321240689332  1.0000
  C   C311      1.0  0.05857297709358416  0.18083786775978178  0.6717037984979638  1.0000
  C   C312      1.0  0.07726104253671355  0.21077520573419078  0.6520430657797621  1.0000
  C   C313      1.0  0.10097995988327861  0.19610276610132601  0.627032066700282  1.0000
  C   C314      1.0  0.10715449989727441  0.15456422807463205  0.6221079065637496  1.0000
  H   H197      1.0  0.04642876056813575  0.11663648898368462  0.6799147218175098  1.0000
  H   H198      1.0  0.03772186834976547  0.19124362479413842  0.69023941927442  1.0000
  H   H199      1.0  0.11590207212466953  0.21689893528320414  0.6096048008792048  1.0000
  H   H200      1.0  0.12865380470195747  0.14491492601925265  0.603627344456783  1.0000
  C   C315      1.0  0.14528736704990727  0.28034741277127884  0.6479016962920611  1.0000
  C   C316      1.0  0.10527101736180208  0.28908847424435824  0.6418548180689785  1.0000
  C   C317      1.0  0.09687812107893169  0.3273161949946568  0.6284157150031093  1.0000
  C   C318      1.0  0.12753539267483738  0.35754315602122133  0.626500630846947  1.0000
  C   C319      1.0  0.16669206063426553  0.349099602595388  0.633035855529851  1.0000
  C   C320      1.0  0.17585830985567075  0.30889923347612314  0.6418117286754649  1.0000
  C   C321      1.0  0.06899860084580135  0.25969025445742117  0.6541688091931024  1.0000
  C   C322      1.0  0.06583900007873225  0.2785208278873411  0.6898396454568211  1.0000
  C   C323      1.0  0.04650855472281297  0.3162552478791195  0.6955585655181609  1.0000
  C   C324      1.0  0.049088670993836105  0.3358018959623981  0.7253764258296085  1.0000
  C   C325      1.0  0.07144351019917763  0.3172654470735733  0.7494753660797162  1.0000
  C   C326      1.0  0.09064400742958492  0.28048033939857914  0.7438258678190374  1.0000
  C   C327      1.0  0.08743526034217758  0.2616368085866424  0.7148769769434484  1.0000
  C   C328      1.0  0.027233341418167134  0.2554417276535304  0.6021575173669285  1.0000
  C   C329      1.0  0.9927737116024232  0.24204218757365642  0.5862359864636338  1.0000
  C   C330      1.0  0.9561689630297846  0.2323310180934513  0.6019133441370178  1.0000
  C   C331      1.0  0.9551900435085541  0.24335161371599254  0.6340843641053499  1.0000
  C   C332      1.0  0.9896913008449852  0.2546659484470358  0.6503386408807778  1.0000
  C   C333      1.0  0.027321884654079698  0.25883023612942013  0.6352094760470952  1.0000
  C   C334      1.0  0.9205515074623432  0.20317725638273598  0.585352653896604  1.0000
  C   C335      1.0  0.9172167252931506  0.21746613173959603  0.4806214891064762  1.0000
  C   C336      1.0  0.9009390463842866  0.18107681193416533  0.49427603913991364  1.0000
  C   C337      1.0  0.9016329591474073  0.176898657118708  0.5269234362920912  1.0000
  C   C338      1.0  0.9170377115994399  0.20737350758117878  0.5468522807921554  1.0000
  C   C339      1.0  0.9291262329275741  0.2443558192348362  0.5320702249617774  1.0000
  C   C340      1.0  0.9328682922551035  0.24807874579359251  0.49986329716551725  1.0000
  C   C341      1.0  0.8768640884480966  0.21539342735003145  0.6011066149362344  1.0000
  C   C342      1.0  0.8643817996306425  0.19817251683435455  0.630122533757289  1.0000
  C   C343      1.0  0.8283176752610433  0.20900042005975653  0.6437627206595552  1.0000
  C   C344      1.0  0.8028922217453527  0.23567252847027684  0.6289088491733211  1.0000
  C   C345      1.0  0.8139029834918569  0.252682793804774  0.5997947822892632  1.0000
  C   C346      1.0  0.8505301747069769  0.24295784787401808  0.5867841793033354  1.0000
  C   C347      1.0  0.9005311537979941  0.12404012013262007  0.593173378819332  1.0000
  C   C348      1.0  0.9092479612596416  0.08335519107605797  0.6004076092192351  1.0000
  C   C349      1.0  0.9486178894462277  0.07239588059078103  0.6063922472072424  1.0000
  C   C350      1.0  0.9786251788782551  0.1015518047621342  0.6039912104464539  1.0000
  C   C351      1.0  0.9700782971400898  0.1418154756233791  0.5964697174231263  1.0000
  C   C352      1.0  0.9304281501963163  0.15477103864513841  0.5922110490308604  1.0000
  H   H201      1.0  0.1542090887456659  0.25086168632807515  0.6592533576277134  1.0000
  H   H202      1.0  0.06585418337944081  0.3356535024999569  0.6243844628543875  1.0000
  H   H203      1.0  0.12014468292573292  0.3902221818365731  0.620851132586268  1.0000
  H   H204      1.0  0.20653452249798443  0.30176273044757995  0.6476718861933216  1.0000
  H   H205      1.0  0.03049043110528893  0.3307031839014035  0.6762186093961164  1.0000
  H   H206      1.0  0.0354262511351342  0.3649345661731322  0.7288714544146048  1.0000
  H   H207      1.0  0.10816618079447285  0.2678706847140962  0.7637427430431256  1.0000
  H   H208      1.0  0.10623691950050324  0.2353202038178024  0.7107739091388706  1.0000
  H   H209      1.0  0.055974793201545435  0.25734793689986724  0.5894892356739146  1.0000
  H   H210      1.0  0.9974731744013539  0.23261924446688265  0.5617229092647559  1.0000
  H   H211      1.0  0.9288047055958699  0.2390761146338833  0.6497306016611961  1.0000
  H   H212      1.0  0.9866661308555162  0.25739749010478646  0.6756895673979766  1.0000
  H   H213      1.0  0.8903393061132246  0.15593555178677085  0.4786058630321153  1.0000
  H   H214      1.0  0.8889858904646487  0.14730746265919462  0.5350481808246098  1.0000
  H   H215      1.0  0.938692952722417  0.2703668728528847  0.5479534541819487  1.0000
  H   H216      1.0  0.9475180068165902  0.27540199428639434  0.49020887916326383  1.0000
  H   H217      1.0  0.8847547212796448  0.17757186624305055  0.6424077986190704  1.0000
  H   H218      1.0  0.8191920293410865  0.19471760579937616  0.6662386270873154  1.0000
  H   H219      1.0  0.7936871247449705  0.27435542632507054  0.5872509810664  1.0000
  H   H220      1.0  0.8579866745501379  0.25624103716002034  0.5636762951040415  1.0000
  H   H221      1.0  0.8688949679633596  0.13094722512789272  0.5882109169996762  1.0000
  H   H222      1.0  0.8854901282769381  0.05985878541192318  0.6025213833565993  1.0000
  H   H223      1.0  0.010108111721941482  0.09445948592239373  0.6068375042735501  1.0000
  H   H224      1.0  0.9961792981279348  0.16318798595169373  0.5948490774559739  1.0000
  C   C353      1.0  0.15128373568685827  0.8036155389523161  0.29993569282775484  1.0000
  C   C354      1.0  0.13268798806618043  0.7650280649542225  0.3004671286810899  1.0000
  C   C355      1.0  0.0978009497643698  0.7582130628946875  0.28249885158589677  1.0000
  C   C356      1.0  0.08116019062314231  0.7899344891301427  0.26511467515833315  1.0000
  C   C357      1.0  0.10152741597301031  0.8282476927219213  0.26447072811082356  1.0000
  C   C358      1.0  0.13587503584104862  0.8358622461598954  0.28232410015664694  1.0000
  H   H225      1.0  0.1459229900384614  0.739943463361378  0.31361896912353476  1.0000
  H   H226      1.0  0.08498519565963192  0.7270883191183491  0.2824413990612119  1.0000
  H   H227      1.0  0.09091085095153574  0.8526829533094533  0.2488603983829053  1.0000
  H   H228      1.0  0.1493461847311204  0.8664742676473924  0.28258981808331446  1.0000
  C   C359      1.0  0.00491145127619963  0.8341876780357056  0.2851727878389384  1.0000
  C   C360      1.0  0.008647668308078726  0.8181884456932976  0.25417715077145103  1.0000
  C   C361      1.0  0.9788597973727927  0.8304622226564631  0.23195092344055043  1.0000
  C   C362      1.0  0.9505110179456066  0.8595740550517925  0.23930173458846002  1.0000
  C   C363      1.0  0.9494271999923288  0.8757693967615234  0.2696175167805098  1.0000
  C   C364      1.0  0.9749769551592856  0.8616062963811288  0.29287621385710144  1.0000
  C   C365      1.0  0.03968806185300245  0.7827867589842599  0.24680886448061642  1.0000
  C   C366      1.0  0.011731799029955248  0.743897056543535  0.2570880786888177  1.0000
  C   C367      1.0  0.9884503362509435  0.7271041987711093  0.23288859652051142  1.0000
  C   C368      1.0  0.9651942087078688  0.6916393217527601  0.2364417957867511  1.0000
  C   C369      1.0  0.9641998848096459  0.6723579445004687  0.26601715856692465  1.0000
  C   C370      1.0  0.9829002552256343  0.6911845795395759  0.2914303253191988  1.0000
  C   C371      1.0  0.0070704374696599626  0.7257495190766445  0.2872985312522786  1.0000
  C   C372      1.0  0.054212014564151395  0.8072807310316428  0.18682364099922158  1.0000
  C   C373      1.0  0.05846204188527429  0.7959229098450501  0.15509093591713122  1.0000
  C   C374      1.0  0.06590213006338837  0.7549709230406322  0.14694727992857037  1.0000
  C   C375      1.0  0.07630037747267915  0.727969794781546  0.17244183775748148  1.0000
  C   C376      1.0  0.07417714963631913  0.7398604711134853  0.20359546926785232  1.0000
  C   C377      1.0  0.058079999650046135  0.7780962620993143  0.21103293797382824  1.0000
  C   C378      1.0  0.06421412945024123  0.7379690791933217  0.11033589795865642  1.0000
  C   C379      1.0  0.9969334179702084  0.7964303898349437  0.032905427336547  1.0000
  C   C380      1.0  0.02422260281455424  0.7652492452565534  0.02713144860571748  1.0000
  C   C381      1.0  0.04605311220473102  0.7480887955740277  0.051049680194260864  1.0000
  C   C382      1.0  0.040104501970561084  0.760112620225198  0.08248818047286083  1.0000
  C   C383      1.0  0.008455018169291728  0.7865373510852177  0.08886852272463518  1.0000
  C   C384      1.0  0.9872055625514007  0.8056100919943795  0.06410720274201472  1.0000
  C   C385      1.0  0.04209772614417194  0.6936489722280156  0.11043093400990597  1.0000
  C   C386      1.0  0.006702440837432766  0.6885651338573635  0.12826635214176535  1.0000
  C   C387      1.0  0.9880268683495574  0.6509817990699236  0.13153587956737348  1.0000
  C   C388      1.0  0.004107570154105344  0.6169795655916462  0.11648140301578136  1.0000
  C   C389      1.0  0.03635796458220823  0.6212255939102115  0.09567353488803852  1.0000
  C   C390      1.0  0.05469101396819935  0.6603616685293193  0.09205258951977457  1.0000
  C   C391      1.0  0.13649811990375754  0.7077652049376468  0.11439850961043528  1.0000
  C   C392      1.0  0.17764262613330842  0.7101598223580792  0.11099684137805194  1.0000
  C   C393      1.0  0.19523427805745608  0.7443242024371388  0.09640868781848533  1.0000
  C   C394      1.0  0.17111685495223494  0.7762806998474768  0.08619434708607399  1.0000
  C   C395      1.0  0.12976340125127392  0.7736482512313319  0.08892812971899573  1.0000
  C   C396      1.0  0.11166469290755524  0.7387086968495825  0.1029637814995095  1.0000
  H   H229      1.0  0.023926786550367618  0.8246752637571617  0.3044193836083699  1.0000
  H   H230      1.0  0.9771670654180437  0.8197523370917654  0.20717141015844642  1.0000
  H   H231      1.0  0.9312198606513192  0.8695394916619598  0.21995004857595915  1.0000
  H   H232      1.0  0.9740053930387422  0.8724789673083906  0.31753292236769154  1.0000
  H   H233      1.0  0.9882207921263967  0.7419666592395333  0.20959470977255035  1.0000
  H   H234      1.0  0.9469671399735162  0.6799618566879105  0.2165838094004648  1.0000
  H   H235      1.0  0.9798273791463287  0.6769286164848332  0.3153066370361528  1.0000
  H   H236      1.0  0.02128462792986907  0.7404329665936131  0.3071747109380485  1.0000
  H   H237      1.0  0.046599997689034146  0.8391165137372812  0.1928319781536614  1.0000
  H   H238      1.0  0.05535381273026109  0.8195418524011338  0.13660295285905952  1.0000
  H   H239      1.0  0.08305519025512917  0.6960374597205261  0.16802589307889065  1.0000
  H   H240      1.0  0.0786210830310363  0.7166109432224561  0.22180025925633148  1.0000
  H   H241      1.0  0.03056600449910629  0.7558347724655516  0.0023598350457576522  1.0000
  H   H242      1.0  0.06878552817122738  0.7243947437941006  0.04484791954004865  1.0000
  H   H243      1.0  0.9993396148153724  0.7931251968188512  0.113244910791867  1.0000
  H   H244      1.0  0.9630293362730714  0.8270873767058442  0.069607803209552  1.0000
  H   H245      1.0  0.9945041376611199  0.7144986208473129  0.14155081216202445  1.0000
  H   H246      1.0  0.964406858152016  0.6467283388425559  0.1493590890377373  1.0000
  H   H247      1.0  0.04785204507748562  0.5941646225859355  0.0841983506243138  1.0000
  H   H248      1.0  0.08083322772289755  0.6639342786791096  0.07597186724599896  1.0000
  H   H249      1.0  0.12450205401233908  0.6806982568755365  0.1267687563316464  1.0000
  H   H250      1.0  0.19654733327686608  0.6854521525223943  0.12105486336621653  1.0000
  H   H251      1.0  0.18445389518065342  0.8043795802304439  0.07581698481486933  1.0000
  H   H252      1.0  0.11150312948840489  0.8005419592267132  0.08191676723776589  1.0000
  C   C397      1.0  0.11752067680260445  0.5188081923125097  0.9630790651476728  1.0000
  C   C398      1.0  0.09039057385805539  0.5156400878101243  0.9374432698622449  1.0000
  C   C399      1.0  0.07585042777411716  0.477835637762063  0.9273818964768069  1.0000
  C   C400      1.0  0.08704657871601067  0.44132762254050845  0.9426235725046641  1.0000
  C   C401      1.0  0.11294963406163579  0.4446071876216673  0.9685011471648075  1.0000
  C   C402      1.0  0.1268085110738575  0.48274438387828184  0.9788952664223787  1.0000
  H   H253      1.0  0.08064460637839982  0.543793647398391  0.9249904351367992  1.0000
  H   H254      1.0  0.05431321788491783  0.4780738042492174  0.9081688146801083  1.0000
  H   H255      1.0  0.12234186156481129  0.4166432405926165  0.9803411549602812  1.0000
  H   H256      1.0  0.1456829094482249  0.48418617233195604  0.9996092954264696  1.0000
  C   C403      1.0  0.1321079854833641  0.3545062375922638  0.9356646354522091  1.0000
  C   C404      1.0  0.09050121670238595  0.35698370516086275  0.939238661258647  1.0000
  C   C405      1.0  0.06971519075650695  0.3196899114446854  0.9460084837506809  1.0000
  C   C406      1.0  0.08996695321056772  0.2827081036077458  0.948122257888045  1.0000
  C   C407      1.0  0.13163709072789553  0.28157790321796045  0.9441340951328371  1.0000
  C   C408      1.0  0.15284219510822686  0.31789096616147827  0.9380082196883127  1.0000
  C   C409      1.0  0.06559972710070867  0.3977550626050193  0.9316022631859499  1.0000
  C   C410      1.0  0.05978031076661544  0.3921371586125108  0.8942581221407842  1.0000
  C   C411      1.0  0.03122699971489995  0.3625496620173659  0.8830979692207481  1.0000
  C   C412      1.0  0.028261767265403526  0.354208109442886  0.8511400023647891  1.0000
  C   C413      1.0  0.04973921486588774  0.37820570989620034  0.829102171437751  1.0000
  C   C414      1.0  0.08025658518355858  0.4042569540264898  0.8401402377428318  1.0000
  C   C415      1.0  0.08548592839417773  0.41055121470339  0.8719809056942258  1.0000
  C   C416      1.0  0.023602063126827222  0.39859088095140016  0.9837571863238358  1.0000
  C   C417      1.0  0.9916506647852965  0.41177901607318307  0.0020079383320628086  1.0000
  C   C418      1.0  0.9577833368864921  0.4294031844350924  0.9880134608609066  1.0000
  C   C419      1.0  0.9565596888483558  0.4320207185297578  0.9545832730598977  1.0000
  C   C420      1.0  0.9901369395935099  0.4213005232359856  0.9366509037926326  1.0000
  C   C421      1.0  0.02412910167206883  0.40348575012538773  0.9506956522228882  1.0000
  C   C422      1.0  0.9218427650545741  0.44313621780109885  0.01075029750494405  1.0000
  C   C423      1.0  0.8789945210563117  0.31513862094969164  0.026846579837488393  1.0000
  C   C424      1.0  0.9023853786297632  0.33470329855543063  0.049086958319713984  1.0000
  C   C425      1.0  0.9146673140533483  0.37560940088001327  0.04461236418884069  1.0000
  C   C426      1.0  0.903590399756406  0.3978273609803193  0.018061131271093656  1.0000
  C   C427      1.0  0.8783868179043326  0.3773308877100961  0.9958964260187099  1.0000
  C   C428      1.0  0.8660951612786133  0.3365684237395498  0.0003585721025680666  1.0000
  C   C429      1.0  0.8916665495602393  0.4759036618365046  0.9949364900854335  1.0000
  C   C430      1.0  0.9072855455305149  0.5121316890959191  0.981092825491575  1.0000
  C   C431      1.0  0.881582971518194  0.5434981603574659  0.9708926085048152  1.0000
  C   C432      1.0  0.8391404907095825  0.5388070979997049  0.9740261649553359  1.0000
  C   C433      1.0  0.8239275595278525  0.5027768518797913  0.9875729915049892  1.0000
  C   C434      1.0  0.8498942964971758  0.4725480650269821  0.9990419517452065  1.0000
  C   C435      1.0  0.9064002334641512  0.4724318370350576  0.06651877246566214  1.0000
  C   C436      1.0  0.9135252300488067  0.4994490858177565  0.09119439243229434  1.0000
  C   C437      1.0  0.947418945052258  0.5248557369720563  0.09109744129688861  1.0000
  C   C438      1.0  0.9732004487580432  0.523518144821307  0.06594688045952816  1.0000
  C   C439      1.0  0.9680430123923821  0.49474249553505506  0.04235184672801057  1.0000
  C   C440      1.0  0.933635301953659  0.4697214149868784  0.041196093439766594  1.0000
  H   H257      1.0  0.14733634526345554  0.3813928154110103  0.9272382651650948  1.0000
  H   H258      1.0  0.03760699701500492  0.3190582441062123  0.9479522941691858  1.0000
  H   H259      1.0  0.07223354101647182  0.2542009518594239  0.9518949736756849  1.0000
  H   H260      1.0  0.1852088458128632  0.3178741940705307  0.935841780736654  1.0000
  H   H261      1.0  0.012949203082066152  0.34455779425204264  0.9002212154320346  1.0000
  H   H262      1.0  0.0061232788716811815  0.3299313048600558  0.8438555010057867  1.0000
  H   H263      1.0  0.0991535276391726  0.4222001682198317  0.8235005502809761  1.0000
  H   H264      1.0  0.11174246626076514  0.43003771524799983  0.8781043872835549  1.0000
  H   H265      1.0  0.04947265478462318  0.3855522539174906  0.9952812052335427  1.0000
  H   H266      1.0  0.9954541680655876  0.40736564012172033  0.02744264978109401  1.0000
  H   H267      1.0  0.9304517209245888  0.4427754638414498  0.9419461114844216  1.0000
  H   H268      1.0  0.9898943893933679  0.4262384733935593  0.9111754968052832  1.0000
  H   H269      1.0  0.9137461266603097  0.3173767972540559  0.06938302020672243  1.0000
  H   H270      1.0  0.9362517485889894  0.3897561712861623  0.06112924687918228  1.0000
  H   H271      1.0  0.8709973472535507  0.3925154593733476  0.9740955867559967  1.0000
  H   H272      1.0  0.8480103030825411  0.3220516234233005  0.981813375905331  1.0000
  H   H273      1.0  0.9398234170159545  0.5184265795718037  0.9789551128022588  1.0000
  H   H274      1.0  0.893536468738367  0.5721602061677689  0.9601753187958918  1.0000
  H   H275      1.0  0.7916649551820397  0.4982770511993905  0.9913074056095058  1.0000
  H   H276      1.0  0.8357176476967401  0.4473615759065727  0.011896954143446159  1.0000
  H   H277      1.0  0.8776607797649454  0.45621818733022795  0.06495558502319462  1.0000
  H   H278      1.0  0.8909090559603784  0.5022508718441051  0.10969793554913485  1.0000
  H   H279      1.0  0.998166456980147  0.5441792809490514  0.06522633004577208  1.0000
  H   H280      1.0  0.9908657480913259  0.49314137425871896  0.023662752427868305  1.0000
  C   C441      1.0  0.7761535823041071  0.4060089410525062  0.27419696176893305  1.0000
  C   C442      1.0  0.7383723735362031  0.4247574603964361  0.2740652997331969  1.0000
  C   C443      1.0  0.7342218397823684  0.46442614099333207  0.2616842806636074  1.0000
  C   C444      1.0  0.7671277650044463  0.48613392468937094  0.24834811337113188  1.0000
  C   C445      1.0  0.8029680035501148  0.46441395384079515  0.24511162114721755  1.0000
  C   C446      1.0  0.807023076050826  0.4252671880176343  0.2573298580635332  1.0000
  H   H281      1.0  0.7126815297259207  0.4089504682666488  0.2846461396959938  1.0000
  H   H282      1.0  0.7049182609241637  0.4784442229767197  0.26271842610793505  1.0000
  H   H283      1.0  0.8274011145049801  0.47904137482010867  0.23278254873536394  1.0000
  H   H284      1.0  0.8354616803822534  0.4101025825236217  0.25488812576442627  1.0000
  C   C447      1.0  0.8217211085511354  0.5550600014765561  0.27083598907486817  1.0000
  C   C448      1.0  0.8022489385230215  0.5593169602122865  0.24136763162192018  1.0000
  C   C449      1.0  0.8160370129076536  0.5915366300094608  0.22182754920555683  1.0000
  C   C450      1.0  0.8472925508946472  0.617885790393377  0.2308545377611475  1.0000
  C   C451      1.0  0.8656304980126202  0.6116719948994186  0.26022402899453356  1.0000
  C   C452      1.0  0.8548221200106731  0.5788458757124075  0.2791689990093695  1.0000
  C   C453      1.0  0.7634295154614942  0.5316528920985252  0.23335970722292734  1.0000
  C   C454      1.0  0.7292161572187157  0.561440872753733  0.2476323506677662  1.0000
  C   C455      1.0  0.7118471988373157  0.5911793336478827  0.2288053977140538  1.0000
  C   C456      1.0  0.6837519305132845  0.6174685747920646  0.24046754206852386  1.0000
  C   C457      1.0  0.6756453735304551  0.6186854305055114  0.2727750117829825  1.0000
  C   C458      1.0  0.6938477582066249  0.5908028430719506  0.29280918591163574  1.0000
  C   C459      1.0  0.7194134098500835  0.5621069314399694  0.2803108679374813  1.0000
  C   C460      1.0  0.7858753269544506  0.5197031809402698  0.17244494976923525  1.0000
  C   C461      1.0  0.7737796569245144  0.5196920775186004  0.14074168910604584  1.0000
  C   C462      1.0  0.7335396355770862  0.5203510368972326  0.13241226995433727  1.0000
  C   C463      1.0  0.7063026291200007  0.511053778407362  0.15666800771973088  1.0000
  C   C464      1.0  0.7174586071784231  0.5092278563593032  0.1879573708196697  1.0000
  C   C465      1.0  0.7566114068578867  0.5207069993546926  0.19670954479885108  1.0000
  C   C466      1.0  0.7150610554344349  0.5297983345168779  0.09820623368456322  1.0000
  C   C467      1.0  0.7814865700989997  0.5919058178172174  0.019897218205814138  1.0000
  C   C468      1.0  0.7446708611394083  0.5712271756543105  0.015346499479733655  1.0000
  C   C469      1.0  0.7263710920033823  0.5519241738320737  0.04039846088872498  1.0000
  C   C470      1.0  0.7410205675180596  0.5534850477633216  0.0717100868419792  1.0000
  C   C471      1.0  0.7756690976461085  0.5785708816380509  0.07637571061742969  1.0000
  C   C472      1.0  0.7960807205981083  0.5965066467154321  0.05098313101983422  1.0000
  C   C473      1.0  0.679564961070839  0.5638340514906426  0.10276533090382718  1.0000
  C   C474      1.0  0.6871401974987077  0.5983310418093699  0.12235783874896548  1.0000
  C   C475      1.0  0.6580608859253884  0.627395491907985  0.1282069845329243  1.0000
  C   C476      1.0  0.6218001962521622  0.6254777728440315  0.11282550736166744  1.0000
  C   C477      1.0  0.6141177967976256  0.5933200175988645  0.09209256690153446  1.0000
  C   C478      1.0  0.6430531406123687  0.5641536301366198  0.08595974927694411  1.0000
  C   C479      1.0  0.6645685307316855  0.46499865592436146  0.09228838425650207  1.0000
  C   C480      1.0  0.6548421497873659  0.42666682091867447  0.08136091406143978  1.0000
  C   C481      1.0  0.6835460391395565  0.40437008848364386  0.06556266670069809  1.0000
  C   C482      1.0  0.7223859984893412  0.42035387442550204  0.061054319211572436  1.0000
  C   C483      1.0  0.7321306576622594  0.4594308353164817  0.07305064575129283  1.0000
  C   C484      1.0  0.7025613118746614  0.48383702241530974  0.08738768390088265  1.0000
  H   H285      1.0  0.8109900858725065  0.534101543479267  0.28907955951750963  1.0000
  H   H286      1.0  0.800780634831629  0.5979001230028104  0.19991635321834492  1.0000
  H   H287      1.0  0.8537442101251306  0.64562075892281  0.2168325309552464  1.0000
  H   H288      1.0  0.8687352348381276  0.5729916491045929  0.30096026285130173  1.0000
  H   H289      1.0  0.7193293819657584  0.5937089578541875  0.20293117445118347  1.0000
  H   H290      1.0  0.6699383355513987  0.6403728575894287  0.22523209006417438  1.0000
  H   H291      1.0  0.6865730102194987  0.5897471706300126  0.31770527994174613  1.0000
  H   H292      1.0  0.734573007661229  0.5414153998316125  0.2964837536362722  1.0000
  H   H293      1.0  0.8179593178616676  0.5236112392849779  0.1782495698465633  1.0000
  H   H294      1.0  0.7968830646877599  0.5232425495949572  0.12226280269771593  1.0000
  H   H295      1.0  0.6739933139175064  0.5074058044103579  0.15224966918594485  1.0000
  H   H296      1.0  0.6940483735190333  0.5051383694037913  0.20616862421717594  1.0000
  H   H297      1.0  0.7306387696542214  0.5677458063014836  0.9924780007999601  1.0000
  H   H298      1.0  0.6988864717234503  0.5343128879277692  0.035660754666225536  1.0000
  H   H299      1.0  0.7883134029454801  0.5827027554443351  0.09974596134611774  1.0000
  H   H300      1.0  0.8234325019710722  0.6135286334336983  0.056707796333642486  1.0000
  H   H301      1.0  0.716200450264998  0.6033052236195654  0.13431729991867977  1.0000
  H   H302      1.0  0.6640621749376864  0.6537773003281827  0.14345296950013267  1.0000
  H   H303      1.0  0.585514287556017  0.5936615385971794  0.07856153979616948  1.0000
  H   H304      1.0  0.6355521508892271  0.5407433574982604  0.06828687391283902  1.0000
  H   H305      1.0  0.6417456542754751  0.4815803121810072  0.1054859473331753  1.0000
  H   H306      1.0  0.6245671031653394  0.41291629868636315  0.08386153519834874  1.0000
  H   H307      1.0  0.7467520174078774  0.4044810896913192  0.048607469124114844  1.0000
  H   H308      1.0  0.7631712760732118  0.4703687969434792  0.06891262766086506  1.0000
  C   C485      1.0  0.39682769074555235  0.447865803502246  0.9553804268399003  1.0000
  C   C486      1.0  0.4136992160338554  0.4818121735388874  0.9406606112445977  1.0000
  C   C487      1.0  0.39487513222986415  0.5195292292995909  0.9424727596273662  1.0000
  C   C488      1.0  0.3580910180445605  0.5238584139856342  0.9582482653637534  1.0000
  C   C489      1.0  0.3419612698614148  0.4888856026500093  0.9736479358344939  1.0000
  C   C490      1.0  0.3610282990825314  0.4516193592179723  0.9723145584907659  1.0000
  H   H309      1.0  0.4399731522335255  0.480447562988175  0.9251220971725354  1.0000
  H   H310      1.0  0.4074245992499277  0.5464210036645857  0.9301994640415607  1.0000
  H   H311      1.0  0.31552109278600693  0.49119215975245545  0.9877381675134583  1.0000
  H   H312      1.0  0.3479067027377539  0.42428177425046704  0.9844370411992734  1.0000
  C   C491      1.0  0.2626655127916899  0.5409666614715632  0.9568526477849503  1.0000
  C   C492      1.0  0.29130570123691374  0.5692782601797577  0.9694467199669128  1.0000
  C   C493      1.0  0.27526210140504914  0.5997628689928604  0.9893540197702202  1.0000
  C   C494      1.0  0.2349766544264214  0.6005545190795015  0.9979240213690467  1.0000
  C   C495      1.0  0.20866670591796901  0.5705557935663877  0.9865484214814424  1.0000
  C   C496      1.0  0.22226025076633954  0.541923798940327  0.9654106801078005  1.0000
  C   C497      1.0  0.33729892224424085  0.5686863257793277  0.9592441091249579  1.0000
  C   C498      1.0  0.33316660640714013  0.588637139754406  0.9243440942340945  1.0000
  C   C499      1.0  0.32871668408859545  0.631377134220668  0.9202865096782256  1.0000
  C   C500      1.0  0.3283287037652069  0.6487087514334136  0.8903920460005313  1.0000
  C   C501      1.0  0.3326317420923748  0.6240859578748547  0.8640069740390048  1.0000
  C   C502      1.0  0.3336371781712121  0.5813847313225977  0.8668939634044195  1.0000
  C   C503      1.0  0.3313137484014774  0.5639930254313269  0.8969942986289011  1.0000
  C   C504      1.0  0.3635472140425732  0.5882851204450074  0.016519488525382986  1.0000
  C   C505      1.0  0.38384459939994103  0.615056235995015  0.03660755180160164  1.0000
  C   C506      1.0  0.41064968050316286  0.6459322492604559  0.02519721360799365  1.0000
  C   C507      1.0  0.41651082066036194  0.6482258264111136  0.9924109728544944  1.0000
  C   C508      1.0  0.3965872885060762  0.6212798621939881  0.9719937818946087  1.0000
  C   C509      1.0  0.36691059523377256  0.5934558683697684  0.9839702394362089  1.0000
  C   C510      1.0  0.4286740203614259  0.6829713777610931  0.04743184683775069  1.0000
  C   C511      1.0  0.30421584445720984  0.718913963137224  0.06446628102129516  1.0000
  C   C512      1.0  0.32572188633925486  0.7015619956104446  0.08901622359017919  1.0000
  C   C513      1.0  0.3664968324553821  0.6963281815849746  0.08627190799439856  1.0000
  C   C514      1.0  0.38608509320910295  0.7049161562785914  0.05725096207743403  1.0000
  C   C515      1.0  0.3649252280988147  0.7243570716514337  0.03287430721900941  1.0000
  C   C516      1.0  0.32423212293251236  0.7317285747215009  0.03659435819235468  1.0000
  C   C517      1.0  0.46241367995150984  0.7126916859107219  0.030442150340683094  1.0000
  C   C518      1.0  0.49943806381883  0.6949135287367003  0.021618400091165002  1.0000
  C   C519      1.0  0.5314255417814784  0.7186215002043517  0.01012310744380085  1.0000
  C   C520      1.0  0.5259053721543058  0.7605968149345573  0.004389824251289864  1.0000
  C   C521      1.0  0.4894642354554727  0.7780274064728872  0.012672563226691747  1.0000
  C   C522      1.0  0.45894896972121746  0.7548478058082857  0.026422867467937428  1.0000
  C   C523      1.0  0.4652341231320958  0.6971153581962589  0.10179653770632856  1.0000
  C   C524      1.0  0.4944273490616604  0.6875355864212997  0.12399403877488668  1.0000
  C   C525      1.0  0.5136418491651671  0.649696902620998  0.12297688970244497  1.0000
  C   C526      1.0  0.5011650006644556  0.6204233395984433  0.10062594251587431  1.0000
  C   C527      1.0  0.4693966385139855  0.6287842114241112  0.07964835005479161  1.0000
  C   C528      1.0  0.45285539641500444  0.6683232938226771  0.07841479647270354  1.0000
  H   H313      1.0  0.2719923524198165  0.5176717674302462  0.9400358150386496  1.0000
  H   H314      1.0  0.29416192763224364  0.6253177914277043  0.997916839803461  1.0000
  H   H315      1.0  0.2262867406428205  0.6252545222791388  0.013807250589218167  1.0000
  H   H316      1.0  0.202137258006446  0.5197257146835269  0.9540638064825387  1.0000
  H   H317      1.0  0.32636798111338255  0.6523779527966381  0.9403326530828549  1.0000
  H   H318      1.0  0.32499595611749577  0.6827637549669014  0.8882064562073112  1.0000
  H   H319      1.0  0.33426059592173585  0.5615240210016234  0.8466515238737836  1.0000
  H   H320      1.0  0.3289969174659252  0.5310170991221786  0.8977890585537085  1.0000
  H   H321      1.0  0.34284090165181946  0.5640217534468914  0.02547729466583215  1.0000
  H   H322      1.0  0.3742040921698303  0.6139725538850719  0.06065669986364923  1.0000
  H   H323      1.0  0.4358405502666835  0.6719160879598542  0.981471054612417  1.0000
  H   H324      1.0  0.399594350817992  0.6253472989764232  0.9464130452786702  1.0000
  H   H325      1.0  0.3090352468084675  0.6903179536571065  0.10969242968218587  1.0000
  H   H326      1.0  0.381070485976042  0.6809553547195268  0.10585292533459989  1.0000
  H   H327      1.0  0.3790521111923826  0.730945931393958  0.010800568464043314  1.0000
  H   H328      1.0  0.3085772979800032  0.7457564427239287  0.016900111501420234  1.0000
  H   H329      1.0  0.50337998098957  0.6621532248655695  0.025649652239887022  1.0000
  H   H330      1.0  0.5592174861709346  0.7031484549060406  0.003401162055671092  1.0000
  H   H331      1.0  0.4828766397907422  0.8099627607048283  0.008868727321514447  1.0000
  H   H332      1.0  0.43334021000132783  0.7705978942052415  0.035823536819499235  1.0000
  H   H333      1.0  0.4523491287132382  0.7281785145889564  0.10163112231234003  1.0000
  H   H334      1.0  0.5031557376641892  0.7100791096653197  0.14139186017706296  1.0000
  H   H335      1.0  0.5168052011568196  0.5907648184671164  0.10080763612519023  1.0000
  H   H336      1.0  0.4621849724171979  0.6048099343015794  0.06171239000473371  1.0000
  C   C529      1.0  0.80812298406969  0.20102631914966584  0.2630344149937018  1.0000
  C   C530      1.0  0.8414016523801795  0.1781940544298449  0.272190911115353  1.0000
  C   C531      1.0  0.8441839816975615  0.138363720691302  0.2610570906024642  1.0000
  C   C532      1.0  0.813131909671156  0.11922504132386537  0.2435316767183836  1.0000
  C   C533      1.0  0.7807897912867032  0.14397280199046905  0.23459254264845686  1.0000
  C   C534      1.0  0.778558376496176  0.18462666549723317  0.24340001468264744  1.0000
  H   H337      1.0  0.8657419665938616  0.19065366043171125  0.2872147463204465  1.0000
  H   H338      1.0  0.8717343660557861  0.12084363673395453  0.26660365308974937  1.0000
  H   H339      1.0  0.7564864792934903  0.130407692974973  0.2210136384391878  1.0000
  H   H340      1.0  0.7512649006121732  0.20117202664519546  0.23748743173601575  1.0000
  C   C535      1.0  0.7491169250708695  0.05807875250630498  0.268475647852398  1.0000
  C   C536      1.0  0.7738816970097716  0.04680855757512997  0.24245683573573748  1.0000
  C   C537      1.0  0.7658058800611153  0.00843913099237481  0.2289976242862286  1.0000
  C   C538      1.0  0.73698881549098  0.9808570648871371  0.2413843886082866  1.0000
  C   C539      1.0  0.7153041150628335  0.9910232328590839  0.2679633628406246  1.0000
  C   C540      1.0  0.7217383916809695  0.029865119842806376  0.2818620861039728  1.0000
  C   C541      1.0  0.8130925335812145  0.07238269727205  0.2315106934701526  1.0000
  C   C542      1.0  0.8493827084191355  0.043880766967198635  0.24487223562769725  1.0000
  C   C543      1.0  0.8707579078494466  0.01812537608962872  0.22485314278677376  1.0000
  C   C544      1.0  0.8997248752891001  0.9913857973828158  0.23567791659396187  1.0000
  C   C545      1.0  0.9065917819029565  0.9876670063093048  0.26811178186272716  1.0000
  C   C546      1.0  0.8857317288041038  0.012049594670894948  0.2895080595974509  1.0000
  C   C547      1.0  0.857584854414785  0.03943727845499101  0.27734488135062485  1.0000
  C   C548      1.0  0.7872736626372395  0.07523367567409574  0.17112593555667846  1.0000
  C   C549      1.0  0.7974784897258743  0.07540951088175732  0.13852665489392457  1.0000
  C   C550      1.0  0.8368729504721591  0.08247708387061291  0.1288581131460195  1.0000
  C   C551      1.0  0.8651439399180885  0.09478439498488114  0.15203661607357177  1.0000
  C   C552      1.0  0.8554909955233079  0.09486785309448503  0.18375711249416665  1.0000
  C   C553      1.0  0.8175603016842812  0.08090406701081354  0.1942735577522126  1.0000
  C   C554      1.0  0.8542232173536116  0.07460385510990111  0.09407204576244776  1.0000
  C   C555      1.0  0.7909879764696299  0.011919063886863146  0.01425250765552577  1.0000
  C   C556      1.0  0.8282066583903248  0.03189368585192476  0.01017337840289989  1.0000
  C   C557      1.0  0.8481288466031538  0.048496602398060806  0.03607249775980059  1.0000
  C   C558      1.0  0.8321992737053086  0.04673050780568884  0.0665549196791097  1.0000
  C   C559      1.0  0.797426669709266  0.021614055304690627  0.07095769815412692  1.0000
  C   C560      1.0  0.7769686472595655  0.005090892992915874  0.04478065220906345  1.0000
  C   C561      1.0  0.8932068618436377  0.046281638578797565  0.0989624525407278  1.0000
  C   C562      1.0  0.8870798283775861  0.008827841442949236  0.11558322854654123  1.0000
  C   C563      1.0  0.9186543193197821  0.9822834777802797  0.12101632229757378  1.0000
  C   C564      1.0  0.9562571001471717  0.9920172574148174  0.10926177513256886  1.0000
  C   C565      1.0  0.9628912552983726  0.02848274527722605  0.09206048924191874  1.0000
  C   C566      1.0  0.9314843209452042  0.05490420127342805  0.08686366899865273  1.0000
  C   C567      1.0  0.8895892212900888  0.14845339291071669  0.08691298241567391  1.0000
  C   C568      1.0  0.8876355936693017  0.18983313383721648  0.07927826004161323  1.0000
  C   C569      1.0  0.853492101356583  0.2055773982500951  0.06456993495124744  1.0000
  C   C570      1.0  0.8203919770106047  0.17986943973736494  0.059244564683999024  1.0000
  C   C571      1.0  0.8212554083777497  0.1394818850738472  0.06889922207177192  1.0000
  C   C572      1.0  0.8567568041931977  0.12163440411654039  0.08135899897728362  1.0000
  H   H341      1.0  0.7529252423938936  0.08758256803816167  0.2806316445336385  1.0000
  H   H342      1.0  0.7835956366375701  0.9972886639786178  0.20845858609690704  1.0000
  H   H343      1.0  0.7331033733737142  0.9510323378448376  0.2310470037188418  1.0000
  H   H344      1.0  0.7047241743893123  0.04142539680712076  0.302166765869684  1.0000
  H   H345      1.0  0.8645705479786352  0.01614891212400571  0.19942633105988689  1.0000
  H   H346      1.0  0.9175850390708948  0.9722797660588102  0.21975327367891348  1.0000
  H   H347      1.0  0.8892049825069849  0.009311375810193034  0.3152372152354919  1.0000
  H   H348      1.0  0.8390334707056529  0.057178835372800337  0.29353931174617265  1.0000
  H   H349      1.0  0.7557647469716186  0.06963164258037345  0.17849254614887639  1.0000
  H   H350      1.0  0.7739392078987065  0.0707127686053245  0.12147163355570136  1.0000
  H   H351      1.0  0.8963964394354919  0.10218162343631725  0.14599141354912584  1.0000
  H   H352      1.0  0.8793825676079965  0.10147152540767776  0.20106588248308138  1.0000
  H   H353      1.0  0.8423323877437738  0.03338915232415762  0.9870176170997021  1.0000
  H   H354      1.0  0.8769306788928781  0.06371937834612924  0.03172286287011672  1.0000
  H   H355      1.0  0.7860458028187037  0.017077445690055315  0.09513755070983258  1.0000
  H   H356      1.0  0.7485902354871043  0.9876434133610962  0.047557045464459796  1.0000
  H   H357      1.0  0.8577508126160632  7.469019112082975e-05  0.12639100598184339  1.0000
  H   H358      1.0  0.9125993577278376  0.9537257415251954  0.13468930501601428  1.0000
  H   H359      1.0  0.9925308073036363  0.03585308582823932  0.08289274200085013  1.0000
  H   H360      1.0  0.9358585438090117  0.08253449825211963  0.07286799459989886  1.0000
  H   H361      1.0  0.915910040928911  0.13799866058773863  0.09962411411668191  1.0000
  H   H362      1.0  0.912697058629997  0.21105911893522672  0.0842055321898994  1.0000
  H   H363      1.0  0.7923598449829449  0.19231764646272703  0.04899335858158155  1.0000
  H   H364      1.0  0.7941987562271823  0.12092113798248723  0.0667600730693386  1.0000
  C   C573      1.0  0.17906041546037468  0.175966888666933  0.9712588683496813  1.0000
  C   C574      1.0  0.15961515062007656  0.14611687935902012  0.9525915855374889  1.0000
  C   C575      1.0  0.17556425903719547  0.10817707007500053  0.947777542739936  1.0000
  C   C576      1.0  0.21313687327853384  0.09899117432110152  0.9612501597785379  1.0000
  C   C577      1.0  0.23157045280202995  0.1280384812514612  0.9812771523416056  1.0000
  C   C578      1.0  0.21516255305716092  0.16598500209095668  0.9864622426944152  1.0000
  H   H365      1.0  0.13163224838807747  0.15346372312692613  0.9396527982074171  1.0000
  H   H366      1.0  0.15950606746423895  0.08687095135278557  0.9316932296833674  1.0000
  H   H367      1.0  0.26057891294433405  0.12134174325206683  0.9925139086278881  1.0000
  H   H368      1.0  0.23078719044320695  0.18876327440336058  0.0009713990325399546  1.0000
  C   C579      1.0  0.304644526002997  0.08178675597494113  0.9494580290869684  1.0000
  C   C580      1.0  0.27981791186262495  0.051354759930187316  0.9619156515228042  1.0000
  C   C581      1.0  0.29721752700399545  0.017014962612065032  0.9759125228491559  1.0000
  C   C582      1.0  0.3383010253444809  0.012949668820004145  0.9753619361542591  1.0000
  C   C583      1.0  0.36266065718478296  0.04287081983672943  0.9620497074137356  1.0000
  C   C584      1.0  0.3455834533349119  0.07829942936705515  0.9495226631772388  1.0000
  C   C585      1.0  0.23136160544629467  0.05362872202742189  0.9545162451144322  1.0000
  C   C586      1.0  0.23165883341824228  0.03829638089334253  0.9177035399226016  1.0000
  C   C587      1.0  0.23595004045914114  0.9955903202593739  0.9111467705429408  1.0000
  C   C588      1.0  0.23524485662528485  0.9820211568826955  0.8797537535130497  1.0000
  C   C589      1.0  0.23177971491150207  0.009928766547626866  0.8555829976070858  1.0000
  C   C590      1.0  0.2268503109730034  0.051717889065563974  0.8616921160652437  1.0000
  C   C591      1.0  0.2281985500107729  0.06589188850490758  0.8927045101190975  1.0000
  C   C592      1.0  0.2082727716296729  0.02855273178442075  0.010410370067225116  1.0000
  C   C593      1.0  0.18747029756436784  0.002058608268564077  0.03060972020434738  1.0000
  C   C594      1.0  0.16133458534352413  0.9713898054229138  0.018130553071754596  1.0000
  C   C595      1.0  0.15317327719150378  0.9720808954960988  0.9856435442176558  1.0000
  C   C596      1.0  0.1736367584578579  0.9996825390224577  0.9664352501313473  1.0000
  C   C597      1.0  0.20314019149964394  0.02651291081328333  0.9778060623085613  1.0000
  C   C598      1.0  0.14453140086519373  0.9343914304313253  0.0397025671834795  1.0000
  C   C599      1.0  0.2645369176566179  0.8847752804874273  0.06503913056950722  1.0000
  C   C600      1.0  0.24322497951017347  0.907299540734421  0.08670136561641797  1.0000
  C   C601      1.0  0.20468195303028008  0.9202430878370366  0.07967947017232924  1.0000
  C   C602      1.0  0.18630285379709902  0.9129835201871038  0.05051058400430116  1.0000
  C   C603      1.0  0.2089185741701643  0.8910109841817204  0.02857254943322962  1.0000
  C   C604      1.0  0.24728960550115214  0.8774082856178615  0.035727782611691294  1.0000
  C   C605      1.0  0.1090764826483115  0.9066970423459955  0.0227267550465442  1.0000
  C   C606      1.0  0.07300542740884246  0.9244459775045533  0.012880828628674568  1.0000
  C   C607      1.0  0.04187489402511997  0.900823742193527  7.609718953416333e-05  1.0000
  C   C608      1.0  0.048430709963524506  0.8600841439246676  0.992724567885066  1.0000
  C   C609      1.0  0.08525125460198288  0.8418185267804804  0.0005261419662323519  1.0000
  C   C610      1.0  0.11481271740479614  0.8657078107989423  0.015351287190124019  1.0000
  C   C611      1.0  0.1075784589675986  0.9176154787392651  0.09185557523720939  1.0000
  C   C612      1.0  0.07827939738335797  0.9250773535584516  0.1137591108877966  1.0000
  C   C613      1.0  0.06326963162476558  0.9651905036903962  0.11755217444459563  1.0000
  C   C614      1.0  0.07847829364038211  0.9963667217868075  0.0990625156878873  1.0000
  C   C615      1.0  0.1059302136510866  0.9885713396289916  0.07537795177206912  1.0000
  C   C616      1.0  0.12046844229638427  0.9487178597561862  0.07060651959699064  1.0000
  H   H369      1.0  0.29308635551542517  0.10825775328942915  0.9366054205439238  1.0000
  H   H370      1.0  0.27797881284158416  0.991647301353467  0.9846764267187936  1.0000
  H   H371      1.0  0.35126430243415935  0.9849137721366092  0.9855932732585564  1.0000
  H   H372      1.0  0.36333955339222446  0.10053161646652473  0.9367682026971976  1.0000
  H   H373      1.0  0.23968049727026605  0.9737044768973384  0.9302904305389786  1.0000
  H   H374      1.0  0.2396824853098652  0.9493759697593351  0.8739893502030011  1.0000
  H   H375      1.0  0.22512318525299868  0.07276868238306468  0.8416507603710047  1.0000
  H   H376      1.0  0.2286412196021406  0.09938003284448686  0.8970302064568292  1.0000
  H   H377      1.0  0.23131473357938206  0.05028386433778861  0.019779919301249338  1.0000
  H   H378      1.0  0.192683365206768  0.0030964136930453634  0.056275944856427874  1.0000
  H   H379      1.0  0.13189027408845908  0.951944918034742  0.9737987487117916  1.0000
  H   H380      1.0  0.16607908066328989  0.9984769643665949  0.9410436280758301  1.0000
  H   H381      1.0  0.25715409595345695  0.9166818864961653  0.109239751664773  1.0000
  H   H382      1.0  0.1905062502242886  0.9392805592588477  0.0972233167414129  1.0000
  H   H383      1.0  0.19861234264198654  0.8866953911574387  0.004258162215553751  1.0000
  H   H384      1.0  0.26490995896734404  0.8612597535265551  0.017785837923645298  1.0000
  H   H385      1.0  0.06935578341231344  0.9566011449255897  0.016979108722861902  1.0000
  H   H386      1.0  0.012764098107177047  0.9159479805029456  0.9950394258588272  1.0000
  H   H387      1.0  0.09149149945925418  0.8087782847973182  0.9968707250831573  1.0000
  H   H388      1.0  0.14171595690533412  0.8483313275909057  0.0216375509327269  1.0000
  H   H389      1.0  0.11720659269085874  0.8860765630038967  0.08906146745336853  1.0000
  H   H390      1.0  0.06482018196660573  0.8990355628357903  0.12661339512947772  1.0000
  H   H391      1.0  0.06817795033661199  0.02794465824094705  0.10061923972132775  1.0000
  H   H392      1.0  0.11417784965488918  0.013894053316840127  0.05952105495904495  1.0000
  C   C617      1.0  0.4282419391470273  0.7962236710347033  0.3139660781268392  1.0000
  C   C618      1.0  0.44220877601972874  0.8365336463700237  0.31111739044454767  1.0000
  C   C619      1.0  0.47657548445695336  0.8456135381442801  0.2939821749572852  1.0000
  C   C620      1.0  0.4975086364800714  0.814775279158616  0.27926475321717764  1.0000
  C   C621      1.0  0.4815110509054027  0.774328408741914  0.28034438191021416  1.0000
  C   C622      1.0  0.44793760430029217  0.7645562127552206  0.29894942448733125  1.0000
  H   H393      1.0  0.4263932095389009  0.8618675731252684  0.32281137307311397  1.0000
  H   H394      1.0  0.4867142614353911  0.8774158935639086  0.2906786547879051  1.0000
  H   H395      1.0  0.4961880661039551  0.7490134060933463  0.2677742482802036  1.0000
  H   H396      1.0  0.43681377706242747  0.7329278893375932  0.29998356993165887  1.0000
  C   C623      1.0  0.5786572121518215  0.7746913374504811  0.294144957110559  1.0000
  C   C624      1.0  0.570286698236014  0.7864055036696801  0.263072716676825  1.0000
  C   C625      1.0  0.5935781532828288  0.7694510330413843  0.23868627441777335  1.0000
  C   C626      1.0  0.6208814485767242  0.7394326440087998  0.24570050952523745  1.0000
  C   C627      1.0  0.6291493252845867  0.7280173309574198  0.27698819692653964  1.0000
  C   C628      1.0  0.6093444293312287  0.7474312248883733  0.3006442739655349  1.0000
  C   C629      1.0  0.5364184133413274  0.8212185723444422  0.2577128748947657  1.0000
  C   C630      1.0  0.5653441340463906  0.8618683570038537  0.2624024372221682  1.0000
  C   C631      1.0  0.5865016765908118  0.8783344226923809  0.23686455061422396  1.0000
  C   C632      1.0  0.610034352429757  0.9138363595966562  0.23918946277980502  1.0000
  C   C633      1.0  0.6127157274116105  0.9334982748279669  0.2682434438984634  1.0000
  C   C634      1.0  0.5928105260838102  0.9168599041848962  0.2947697533165069  1.0000
  C   C635      1.0  0.5701550492137469  0.8808614081817303  0.29168168011469514  1.0000
  C   C636      1.0  0.5096733584971579  0.7932595791236684  0.201444829760482  1.0000
  C   C637      1.0  0.49791272441325735  0.8043859871868141  0.1706122142317879  1.0000
  C   C638      1.0  0.4910538919814858  0.845659899460264  0.16297964632740292  1.0000
  C   C639      1.0  0.48178067979662753  0.871361434076251  0.18806270044825865  1.0000
  C   C640      1.0  0.4938339050728438  0.861526344077029  0.2183356326323143  1.0000
  C   C641      1.0  0.5132214164956592  0.8240320255219963  0.22447778629216594  1.0000
  C   C642      1.0  0.49208261622921695  0.8663436775149285  0.12823810465046193  1.0000
  C   C643      1.0  0.5705368913964701  0.8213724201582727  0.05130654085670614  1.0000
  C   C644      1.0  0.5446764994965784  0.8538827446183618  0.04651811230974173  1.0000
  C   C645      1.0  0.5200920822896413  0.8668109340158223  0.07076810482266685  1.0000
  C   C646      1.0  0.5216202216907652  0.8490625868909146  0.10107574790705294  1.0000
  C   C647      1.0  0.5515285555899943  0.8194048531617549  0.10599751418839017  1.0000
  C   C648      1.0  0.5750731953118777  0.804945038106558  0.08146887693074342  1.0000
  C   C649      1.0  0.5115644114172171  0.9124726643615864  0.13021997736657043  1.0000
  C   C650      1.0  0.5498335763015918  0.9155103896330568  0.1449431443591465  1.0000
  C   C651      1.0  0.5683162913444855  0.953712658179807  0.1505160392535789  1.0000
  C   C652      1.0  0.5495705030192304  0.9896253709673414  0.13998116131052987  1.0000
  C   C653      1.0  0.512915215155844  0.9868470622441338  0.12434665364514008  1.0000
  C   C654      1.0  0.49425012373238403  0.9489250543961624  0.11895305850482837  1.0000
  C   C655      1.0  0.4159787850789712  0.8873334823562725  0.12810285183193298  1.0000
  C   C656      1.0  0.37559057682716496  0.8801843730926798  0.1217069495213898  1.0000
  C   C657      1.0  0.36386175559601275  0.8457753053325363  0.1044513231178086  1.0000
  C   C658      1.0  0.39257825547308095  0.8191015863524976  0.09292850113569932  1.0000
  C   C659      1.0  0.4328556156029606  0.8260215132365543  0.10049499863669673  1.0000
  C   C660      1.0  0.4458043549562925  0.8610356540075825  0.1170599978164619  1.0000
  H   H397      1.0  0.5610518427328426  0.7860897197586303  0.3143371256820956  1.0000
  H   H398      1.0  0.591330385168399  0.7796496806011936  0.2146256358507888  1.0000
  H   H399      1.0  0.6370606339679219  0.725168571337328  0.22636175033079065  1.0000
  H   H400      1.0  0.6168810162471633  0.7402809892824731  0.3250592031014095  1.0000
  H   H401      1.0  0.5858670628353657  0.8620982670627109  0.21403267791893704  1.0000
  H   H402      1.0  0.6251621561720895  0.9268803082289686  0.21801270156648142  1.0000
  H   H403      1.0  0.592813830367076  0.9325659782714902  0.31827262362300923  1.0000
  H   H404      1.0  0.5564659783573896  0.8680022905647209  0.3135088517845554  1.0000
  H   H405      1.0  0.5188820421770158  0.7617446354199899  0.2063371516229182  1.0000
  H   H406      1.0  0.4990840309552243  0.7822934275957063  0.1511791371426501  1.0000
  H   H407      1.0  0.472764783762785  0.9027577100025946  0.18318330540387653  1.0000
  H   H408      1.0  0.4938512604495118  0.8864545238712455  0.23496335081819378  1.0000
  H   H409      1.0  0.5428410000079696  0.8683558444888095  0.023344369686906452  1.0000
  H   H410      1.0  0.4984632923842437  0.8912736044110382  0.0660593916537027  1.0000
  H   H411      1.0  0.5569021382981578  0.8071160266168883  0.12972564626876104  1.0000
  H   H412      1.0  0.5958990628519726  0.7790044761846132  0.08489783511235209  1.0000
  H   H413      1.0  0.5636895689465632  0.8881780528575319  0.15485442302384514  1.0000
  H   H414      1.0  0.596340198000375  0.9582814020176844  0.16402887305946035  1.0000
  H   H415      1.0  0.4986480738401655  0.01452289894110681  0.11440114285115002  1.0000
  H   H416      1.0  0.4669421321781613  0.9493569218005962  0.10546919034680888  1.0000
  H   H417      1.0  0.4248046646868072  0.9128978518815067  0.14406603581562413  1.0000
  H   H418      1.0  0.3530131719852863  0.9015622077081087  0.12956549735620196  1.0000
  H   H419      1.0  0.3846969711422164  0.7910530612510761  0.08010629455363392  1.0000
  H   H420      1.0  0.45471784507595714  0.8033520325465595  0.09245810858984195  1.0000
  C   C661      1.0  0.4486606943863812  0.10253142452456686  0.9731811340714294  1.0000
  C   C662      1.0  0.4731716732159747  0.10853655604196859  0.9467362157300226  1.0000
  C   C663      1.0  0.48846332670870046  0.14696880572144108  0.9399592116724031  1.0000
  C   C664      1.0  0.48001246015578614  0.1816339125016325  0.9585977682222531  1.0000
  C   C665      1.0  0.454438868028455  0.17508709942381767  0.9846548820220368  1.0000
  C   C666      1.0  0.44122741898732487  0.13569502564457697  0.992655146084405  1.0000
  H   H421      1.0  0.48231884273019826  0.08298870942710133  0.9331702383388077  1.0000
  H   H422      1.0  0.5101173863165928  0.14838271459432187  0.9207844315588277  1.0000
  H   H423      1.0  0.4487226635938928  0.19942050052239096  0.0015626812657552058  1.0000
  H   H424      1.0  0.42208316078264196  0.13205254263420968  0.013670800843091468  1.0000
  C   C667      1.0  0.44171022504970275  0.2687139578561385  0.9603093746868232  1.0000
  C   C668      1.0  0.48339079223801834  0.2640479073027136  0.9636799228016688  1.0000
  C   C669      1.0  0.5067979759466412  0.29752355592460944  0.9738633828020622  1.0000
  C   C670      1.0  0.4902148851113656  0.3353739036162558  0.9802932778563772  1.0000
  C   C671      1.0  0.4490640860133486  0.34092112204080965  0.9752853327880127  1.0000
  C   C672      1.0  0.4252378694290946  0.30722923708544086  0.9657386382695433  1.0000
  C   C673      1.0  0.5059184138353247  0.22324114636085052  0.9529602392375501  1.0000
  C   C674      1.0  0.5125298617370944  0.23751319832135379  0.9172463135803177  1.0000
  C   C675      1.0  0.5466348023679313  0.261400544660403  0.9084201694756047  1.0000
  C   C676      1.0  0.5512241662872459  0.2757889587941392  0.8775083173399494  1.0000
  C   C677      1.0  0.5214148331531108  0.2683274260319642  0.855267008721319  1.0000
  C   C678      1.0  0.4874775648839292  0.24431033427094348  0.8628268034277697  1.0000
  C   C679      1.0  0.4834733668912674  0.22833914684062137  0.8935303901614425  1.0000
  C   C680      1.0  0.5462387929558041  0.20951928476260007  0.00404989681357093  1.0000
  C   C681      1.0  0.5767361624774994  0.19273277785043735  0.02122102012876148  1.0000
  C   C682      1.0  0.6108921246423302  0.17772240542002596  0.0061540955301544464  1.0000
  C   C683      1.0  0.6124756296498266  0.1806441650075131  0.9733343408039223  1.0000
  C   C684      1.0  0.5797002835046976  0.1938196291434923  0.9560076169010434  1.0000
  C   C685      1.0  0.5464393308264112  0.2099712479023816  0.9712373236529245  1.0000
  C   C686      1.0  0.6472032660478714  0.15998403548682927  0.026403716626375973  1.0000
  C   C687      1.0  0.6922027750746066  0.2849492686250526  0.049163801071479996  1.0000
  C   C688      1.0  0.6694296118602371  0.26268620173834933  0.07147836165908356  1.0000
  C   C689      1.0  0.6581356324785264  0.2216378678118885  0.06528521888357407  1.0000
  C   C690      1.0  0.6684296523395873  0.20258694229838103  0.0367092632417243  1.0000
  C   C691      1.0  0.69328487942962  0.2245467029374325  0.01593299400255832  1.0000
  C   C692      1.0  0.7050084486993002  0.2649546862773087  0.022075626433448958  1.0000
  C   C693      1.0  0.6757836651979041  0.12821231975589434  0.006850707391958366  1.0000
  C   C694      1.0  0.6590822272883529  0.09564945862565424  0.9889853660701589  1.0000
  C   C695      1.0  0.6836479862286583  0.06596165838574532  0.9757904362342006  1.0000
  C   C696      1.0  0.7249284759670238  0.06938344424780352  0.9785266127223174  1.0000
  C   C697      1.0  0.7418131735772044  0.10177767787319408  0.9956666159199703  1.0000
  C   C698      1.0  0.7175669471863038  0.1307250304695346  0.010185347678876022  1.0000
  C   C699      1.0  0.6622248644303005  0.12151053980266026  0.07895125942194851  1.0000
  C   C700      1.0  0.6532964377130189  0.0914542980057431  0.10091392329585723  1.0000
  C   C701      1.0  0.6168618262773544  0.06989527583037704  0.10051391009273883  1.0000
  C   C702      1.0  0.5895560652271274  0.07689584428021773  0.07597234601703799  1.0000
  C   C703      1.0  0.5995944345091192  0.1053757932802032  0.05274907799733542  1.0000
  C   C704      1.0  0.6350227557729076  0.12908627782286644  0.054691930873762104  1.0000
  H   H425      1.0  0.42112301917595873  0.2445861780002481  0.951341993125593  1.0000
  H   H426      1.0  0.5394666311383355  0.29570687850759725  0.9762380871557034  1.0000
  H   H427      1.0  0.5096546738545696  0.3616018074683394  0.9883677514297966  1.0000
  H   H428      1.0  0.3930785205216337  0.3114135669951739  0.9619731040474891  1.0000
  H   H429      1.0  0.570276588718992  0.26901553982777376  0.9257444995232882  1.0000
  H   H430      1.0  0.5788800167389998  0.2914618212813966  0.8706954054544018  1.0000
  H   H431      1.0  0.46401939849720036  0.23953503498481868  0.8454139007378638  1.0000
  H   H432      1.0  0.4550962993071279  0.2118047863209866  0.8987633576181561  1.0000
  H   H433      1.0  0.5211499708713689  0.2229536928619476  0.017192161835234865  1.0000
  H   H434      1.0  0.5734578883511847  0.19183498709211136  0.046702199774252835  1.0000
  H   H435      1.0  0.6391573738315475  0.1699253220750255  0.9604051288946313  1.0000
  H   H436      1.0  0.5804814953775701  0.19115614993211955  0.9299935924947734  1.0000
  H   H437      1.0  0.6599420025366562  0.276568868735612  0.09352600739242198  1.0000
  H   H438      1.0  0.6355175119591674  0.2072063568477222  0.08210013654571843  1.0000
  H   H439      1.0  0.7010773496401073  0.21283117355971645  0.9928538360656068  1.0000
  H   H440      1.0  0.7243179746147875  0.2805026320167533  0.004638785191590777  1.0000
  H   H441      1.0  0.6268231406024524  0.09316300063296508  0.9864670304048055  1.0000
  H   H442      1.0  0.6694975044410503  0.04013774565367534  0.9631532746587242  1.0000
  H   H443      1.0  0.7750155402724754  0.10453524168270643  0.9987211751490492  1.0000
  H   H444      1.0  0.7315092274775212  0.15370741219150344  0.025364783471657715  1.0000
  H   H445      1.0  0.6910669980003962  0.13718543377791573  0.07885885661141369  1.0000
  H   H446      1.0  0.6754789530441984  0.08545332373351078  0.11900332946392762  1.0000
  H   H447      1.0  0.5607995988274442  0.05925688913692902  0.07309134128961128  1.0000
  H   H448      1.0  0.5789272155455533  0.10630256867557121  0.031485871205791716  1.0000
  C   C705      1.0  0.5722069614215901  0.03162227737627199  0.14338785663882317  1.0000
  C   C706      1.0  0.6112462701081238  0.032181765841312604  0.12257759465588512  1.0000
  H   H449      1.0  0.5520225543126722  0.05676641244610573  0.13563009010772903  1.0000
  H   H450      1.0  0.5800773306981295  0.03782635566322656  0.16854057194585928  1.0000
  H   H451      1.0  0.6117830597728764  0.0050751084638607225  0.10585388287667798  1.0000
  H   H452      1.0  0.6381476107718285  0.02781804653994735  0.13819223332315472  1.0000
  C   C707      1.0  0.4084066695225125  0.035723386619803454  0.9583344441507807  1.0000
  C   C708      1.0  0.4344414140463191  0.059026844545971374  0.9831252085523022  1.0000
  H   H453      1.0  0.41704796559264595  0.04433201135130214  0.933352171333643  1.0000
  H   H454      1.0  0.41460635753993613  0.0026434388921197094  0.9602208020446006  1.0000
  H   H455      1.0  0.4629384504841645  0.041225902059546904  0.9874030277861298  1.0000
  H   H456      1.0  0.4203646056556164  0.0575892993359788  0.0069775817173041155  1.0000
  C   C709      1.0  0.3098813070516915  0.876146213749085  0.06863015274783112  1.0000
  C   C710      1.0  0.31951249751929145  0.8433759326670929  0.09508967360592853  1.0000
  H   H457      1.0  0.3240884736399555  0.8659549601193253  0.04537983416442274  1.0000
  H   H458      1.0  0.32422306386804534  0.9071763252126044  0.0730714722914911  1.0000
  H   H459      1.0  0.30071095917726703  0.8486405716158238  0.11690487599981275  1.0000
  H   H460      1.0  0.3107596232736255  0.8113531107579687  0.08736494227652822  1.0000
  C   C711      1.0  0.682834204973011  0.9606077647125167  0.280095420969913  1.0000
  C   C712      1.0  0.64015980321152  0.9723155564165783  0.2696749693051947  1.0000
  H   H461      1.0  0.6894303914569302  0.9273767594177517  0.2724087519381165  1.0000
  H   H462      1.0  0.6859380922018814  0.9593381461289068  0.30626025825348097  1.0000
  H   H463      1.0  0.64172589229542  0.9882664206972795  0.24582498999538802  1.0000
  H   H464      1.0  0.6288993290254735  0.9963810697480708  0.2857736454929343  1.0000
  C   C713      1.0  0.7640704639569212  0.0007891574264271561  0.9849828401837796  1.0000
  C   C714      1.0  0.753257424566341  0.03810673202077419  0.9628588304697142  1.0000
  H   H465      1.0  0.7792052370083012  0.976383816633318  0.9712468990737053  1.0000
  H   H466      1.0  0.735122841434676  0.9861868112341567  0.992336763343443  1.0000
  H   H467      1.0  0.7405839909771397  0.026648473973844178  0.9403422285036356  1.0000
  H   H468      1.0  0.7803451984752425  0.056747509722896036  0.9564002091530568  1.0000
  C   C715      1.0  0.9885268580467484  0.9594834012836942  0.11202021447400119  1.0000
  C   C716      1.0  0.023185096675034655  0.9707289056300722  0.1354905283498487  1.0000
  H   H469      1.0  0.9762633211800231  0.929096120410406  0.12000420032104199  1.0000
  H   H470      1.0  3.055754561342994e-05  0.9521605309757127  0.08802971586423607  1.0000
  H   H471      1.0  0.022172272948874916  0.9506403892472324  0.15728921314288605  1.0000
  H   H472      1.0  0.019878719278650037  0.003241953835939393  0.14400211988191222  1.0000
  C   C717      1.0  0.4145167402425646  0.4041944322720802  0.9506717136709363  1.0000
  C   C718      1.0  0.4320379315274592  0.3838290277175787  0.9812963031831672  1.0000
  H   H473      1.0  0.43798798434743746  0.4037554084610514  0.9322342409574833  1.0000
  H   H474      1.0  0.390091365168058  0.3830636004979979  0.942707357436496  1.0000
  H   H475      1.0  0.40731975680741  0.38232377526715955  0.9987905969497102  1.0000
  H   H476      1.0  0.45624620864516563  0.40453390628174885  0.9929352271422437  1.0000
  C   C719      1.0  0.5912216525651447  0.8012602818335637  0.021958327528883936  1.0000
  C   C720      1.0  0.561702222781827  0.788530085609238  0.9948814314159439  1.0000
  H   H477      1.0  0.6142975084888179  0.8235129320612433  0.01229194025065472  1.0000
  H   H478      1.0  0.6088292359764907  0.7738984448411871  0.02976708317563581  1.0000
  H   H479      1.0  0.5787475262669611  0.7713275891334365  0.9758191624965429  1.0000
  H   H480      1.0  0.5508442805566472  0.8166670407331277  0.9826919207619705  1.0000
  C   C721      1.0  0.6705370013696274  0.3617152402847288  0.05289821517599656  1.0000
  C   C722      1.0  0.7047173747799181  0.3300512849981993  0.055923808757213526  1.0000
  H   H481      1.0  0.6433611006294537  0.3502461478274682  0.06540658734197087  1.0000
  H   H482      1.0  0.6618525005339916  0.36337347426474087  0.027490526884997868  1.0000
  H   H483      1.0  0.7164887326702075  0.33106272198397096  0.08064969968294498  1.0000
  H   H484      1.0  0.7305217090645639  0.3397222630677133  0.04014375469595539  1.0000
  C   C723      1.0  0.6438681666389356  0.6505184803761815  0.28362875123803255  1.0000
  C   C724      1.0  0.6613012662953854  0.6961103515520941  0.2840165557796554  1.0000
  H   H485      1.0  0.6152274089298011  0.6493811629638083  0.2682434438984634  1.0000
  H   H486      1.0  0.6332744650642447  0.6410004029033219  0.30767023896345547  1.0000
  H   H487      1.0  0.6862901968826068  0.7001705303810256  0.2669507620930538  1.0000
  H   H488      1.0  0.6772482302235004  0.7022171970012353  0.3068180265139632  1.0000
  C   C725      1.0  0.5902296670377513  0.6588589586064537  0.12042073112500727  1.0000
  C   C726      1.0  0.553400934243881  0.6437246144287285  0.14132219899088255  1.0000
  H   H489      1.0  0.6044877999246421  0.6876016218887824  0.13046391121096163  1.0000
  H   H490      1.0  0.5788700538103755  0.6678459088862584  0.09650180878557872  1.0000
  H   H491      1.0  0.5544731497997293  0.6598965939177067  0.16461512819676555  1.0000
  H   H492      1.0  0.5564376409571739  0.6105730405178547  0.1481118904810366  1.0000
  C   C727      1.0  0.15359623813294418  0.24085338487336788  0.943107131254095  1.0000
  C   C728      1.0  0.15866443309044886  0.21745424779563302  0.9751895785802046  1.0000
  H   H493      1.0  0.13686701271597687  0.22066748665413227  0.926060488409055  1.0000
  H   H494      1.0  0.18409424598776128  0.24604959309257943  0.9329428220952634  1.0000
  H   H495      1.0  0.1281860987724998  0.21311391927575093  0.9860265610488882  1.0000
  H   H496      1.0  0.17617780181738885  0.23801000059480137  0.9929088947350966  1.0000
  C   C729      1.0  0.8742184143955741  0.2677896513489016  0.02834992090007593  1.0000
  C   C730      1.0  0.8503590111960155  0.25253640987081893  0.057726381719201324  1.0000
  H   H497      1.0  0.9036833004671623  0.25140878585851767  0.02601830593994814  1.0000
  H   H498      1.0  0.8577638242063612  0.25742445950044757  0.0067669224601263345  1.0000
  H   H499      1.0  0.8184835604362656  0.2621048375712718  0.055926681383447766  1.0000
  H   H500      1.0  0.8620895142356758  0.2670606919314251  0.07957294361614271  1.0000
  C   C731      1.0  0.12932905684450707  0.5637367729014066  0.9737652347390588  1.0000
  C   C732      1.0  0.16397953221811823  0.5708547554495662  0.9982807057931319  1.0000
  H   H501      1.0  0.10222631518114844  0.5769353237671659  0.9851408346266631  1.0000
  H   H502      1.0  0.13477929736552463  0.5842761867860019  0.9532475018609745  1.0000
  H   H503      1.0  0.15934819195626304  0.549571592966017  0.018190399451634587  1.0000
  H   H504      1.0  0.15691642399518724  0.6016634390163325  0.007616741054423226  1.0000
  C   C733      1.0  0.8119094803306973  0.5755527858412907  0.9636176825665935  1.0000
  C   C734      1.0  0.8025766928135658  0.6093340580593923  0.9900410562112434  1.0000
  H   H505      1.0  0.8255622120479388  0.5917920739605643  0.9427384775540337  1.0000
  H   H506      1.0  0.7824587660942497  0.5624723418667767  0.9548513848417605  1.0000
  H   H507      1.0  0.7833462499192595  0.6342482430276735  0.9798528085004599  1.0000
  H   H508      1.0  0.8312667092937774  0.6258889713965786  0.9979335967898275  1.0000
  C   C735      1.0  0.9181418569176862  0.9099179742518805  0.27569790897632523  1.0000
  C   C736      1.0  0.9355255602927005  0.954190667197676  0.27988236785754  1.0000
  H   H509      1.0  0.8944617353129937  0.9097381884853906  0.2563962545374041  1.0000
  H   H510      1.0  0.9012791470651123  0.9026484538113794  0.29781473712480505  1.0000
  H   H511      1.0  0.9458104944425655  0.9583891138024951  0.30463243672074297  1.0000
  H   H512      1.0  0.9637561888006723  0.955601738579469  0.2658280440065036  1.0000
  C   C737      1.0  0.9800704191647098  0.8215712925909046  0.004054684523961294  1.0000
  C   C738      1.0  0.01285704297032253  0.8351301445245931  0.9787947245041801  1.0000
  H   H513      1.0  0.9540005307094648  0.8037168454968824  0.9931195539922744  1.0000
  H   H514      1.0  0.9659184044755367  0.8502164484827304  0.012643836964349342  1.0000
  H   H515      1.0  0.9967047260915873  0.8530243019307122  0.9602710730036998  1.0000
  H   H516      1.0  0.023702719746236278  0.8078426901271156  0.9653029566240164  1.0000
  C   C739      1.0  0.2568076993407326  0.7201869315645537  0.06710502760296734  1.0000
  C   C740      1.0  0.24216398781333595  0.7480441750312087  0.09417593907791957  1.0000
  H   H517      1.0  0.24005982903817663  0.7281424986212205  0.04434688564769268  1.0000
  H   H518      1.0  0.24604618546160126  0.6877256629868539  0.07295297645932855  1.0000
  H   H519      1.0  0.256481194049941  0.7412720536525449  0.11765870100078214  1.0000
  H   H520      1.0  0.2500792130292057  0.7806280583987644  0.08974634942471608  1.0000
  C   C741      1.0  0.939576788507433  0.6324749553356651  0.2682171114913161  1.0000
  C   C742      1.0  0.8949256564675956  0.6448418196463955  0.27252844469787657  1.0000
  H   H521      1.0  0.9427580307818696  0.6150704779081824  0.24478845069586513  1.0000
  H   H522      1.0  0.9513766566430116  0.6140864243635281  0.28869893654147233  1.0000
  H   H523      1.0  0.887905206908423  0.6753623195206229  0.2615119230895528  1.0000
  H   H524      1.0  0.8897165771210479  0.6494067378688246  0.2985975277736364  1.0000
  C   C743      1.0  0.9917227591337181  0.573319101180201  0.1286836011022892  1.0000
  C   C744      1.0  0.948955265500814  0.559435425213701  0.11688117683338024  1.0000
  H   H525      1.0  0.013532631018140728  0.5490797279961691  0.12223096442361972  1.0000
  H   H526      1.0  0.9909786943590335  0.5721303012557383  0.1557633698414637  1.0000
  H   H527      1.0  0.9292697123531268  0.5854831835684093  0.10904776447811772  1.0000
  H   H528      1.0  0.9334306545747033  0.5456438462073002  0.13765074327799984  1.0000
  C   C745      1.0  0.04658709339870334  0.37028055560262924  0.7935199078162549  1.0000
  C   C746      1.0  0.07472701201037439  0.33403489548070153  0.7839827887185664  1.0000
  H   H529      1.0  0.013852142288200087  0.36353753036542624  0.7870493172236213  1.0000
  H   H530      1.0  0.054827012391378105  0.3991927738305689  0.7802100729309265  1.0000
  H   H531      1.0  0.06784026138053408  0.30644239687419234  0.799538059776995  1.0000
  H   H532      1.0  0.10702480016319585  0.34190341342185016  0.7891702729265712  1.0000
  C   C747      1.0  0.17415345158608672  0.8449805795156821  0.34987151219968776  1.0000
  C   C748      1.0  0.18520041705194498  0.8139157160533603  0.3232733871257881  1.0000
  H   H533      1.0  0.19593234412306046  0.8428536359957934  0.36997271427380674  1.0000
  H   H534      1.0  0.17976223797114976  0.8769258964339097  0.3409615831631425  1.0000
  H   H535      1.0  0.1970334949328069  0.785224167302768  0.3351876044323131  1.0000
  H   H536      1.0  0.21120865115663143  0.8273976211153964  0.310095214276196  1.0000
  C   C749      1.0  0.966644739020147  0.007352565139077338  0.5770842780523731  1.0000
  C   C750      1.0  0.9624914812044869  0.02739848883473961  0.6102463540715192  1.0000
  H   H537      1.0  0.9817134614371353  0.030079817621929017  0.5607869118834317  1.0000
  H   H538      1.0  0.9364223668523732  0.0019530109382084326  0.566996572259788  1.0000
  H   H539      1.0  0.9922349300561958  0.02679467076615638  0.623800362186758  1.0000
  H   H540      1.0  0.93929214730967  0.008973079200008005  0.6239775074712031  1.0000
  C   C751      1.0  0.27440783008858505  0.9897960511368756  0.8082397234115576  1.0000
  C   C752      1.0  0.23090747209163892  0.9932364869900179  0.8213053850669751  1.0000
  H   H541      1.0  0.2795171594781301  0.9557572851020408  0.8044861584654793  1.0000
  H   H542      1.0  0.2968079786127137  0.00037222026141447984  0.8262869977281925  1.0000
  H   H543      1.0  0.2162115098308928  0.9625121803633988  0.8210157285883555  1.0000
  H   H544      1.0  0.21208348928470738  0.013210076007241334  0.8059535917001388  1.0000
  C   C753      1.0  0.11269346844406765  0.05675421584277529  0.6634330287985376  1.0000
  C   C754      1.0  0.09248220058967549  0.0793488365071255  0.6351687805087768  1.0000
  H   H545      1.0  0.11113985258909857  0.022773413859335623  0.6594472598985248  1.0000
  H   H546      1.0  0.09716255400301022  0.06203885444775839  0.6862321056776503  1.0000
  H   H547      1.0  0.06250073210150109  0.06446918445955148  0.6300172041287001  1.0000
  H   H548      1.0  0.11013408141155648  0.07375325269655428  0.612874807075852  1.0000
  C   C755      1.0  0.2539358492976048  0.9400285404938801  0.556061441728101  1.0000
  C   C756      1.0  0.24028020542281914  0.9020521606375258  0.5361685050559648  1.0000
  H   H549      1.0  0.24277741092040328  0.9380769382938475  0.5809695050341874  1.0000
  H   H550      1.0  0.23744738064659462  0.966982560074744  0.5463112695180395  1.0000
  H   H551      1.0  0.2469421291258741  0.9065963879199531  0.5108008215523994  1.0000
  H   H552      1.0  0.2566139916365593  0.8747526413523936  0.544831867007404  1.0000
  C   C757      1.0  0.7642839666842035  0.2468384963937229  0.30022295545117916  1.0000
  C   C758      1.0  0.8013442125181475  0.24441331819202636  0.27747414953116584  1.0000
  H   H553      1.0  0.7368957463759228  0.24876899482592116  0.2850961844726919  1.0000
  H   H554      1.0  0.7662479036707499  0.27613571025830325  0.3132742539754255  1.0000
  H   H555      1.0  0.8271839835067449  0.2551509339064346  0.2923711104109136  1.0000
  H   H556      1.0  0.8005240378194522  0.26883125350943776  0.25910131090798344  1.0000
  C   C759      1.0  0.8906495801789008  0.9678929244069594  0.38909482957308766  1.0000
  C   C760      1.0  0.8994657990285707  0.007701703135262639  0.40979928315639774  1.0000
  H   H557      1.0  0.8859280964354339  0.9760827852112148  0.36381571871174484  1.0000
  H   H558      1.0  0.8607948165618048  0.9542340243776486  0.39542897041959457  1.0000
  H   H559      1.0  0.9046747228353902  0.0010315925126069825  0.43519569292230553  1.0000
  H   H560      1.0  0.9278171085903633  0.023337191308158145  0.40246929854868635  1.0000
  C   C761      1.0  0.7258013126825174  0.22339732622118516  0.635017967631479  1.0000
  C   C762      1.0  0.7637776005882849  0.2493724784149092  0.644964435967547  1.0000
  H   H561      1.0  0.6999172131242959  0.23662651990834033  0.6485240986428139  1.0000
  H   H562      1.0  0.7287376214121676  0.19172016799930822  0.6431810138471209  1.0000
  H   H563      1.0  0.7585108708545407  0.28302712952471243  0.639937340057621  1.0000
  H   H564      1.0  0.7668698926219057  0.24799328260106954  0.6714620191232482  1.0000
  C   C763      1.0  0.49225407818541456  0.1524280016579866  0.5135369980405163  1.0000
  C   C764      1.0  0.5198652272088385  0.18212506414230084  0.5338512532270083  1.0000
  H   H565      1.0  0.512143014333005  0.13737550871321863  0.49557829636610407  1.0000
  H   H566      1.0  0.4711314817128299  0.17092679351021337  0.4992217439732028  1.0000
  H   H567      1.0  0.526527886206217  0.16706101052998779  0.5574594531620995  1.0000
  H   H568      1.0  0.5018100277504038  0.21017984866242811  0.5392470028369957  1.0000
  C   C765      1.0  0.5387619159054536  0.3276052347047888  0.8143033586210066  1.0000
  C   C766      1.0  0.5260359761846761  0.28130373765901406  0.8202089993875722  1.0000
  H   H569      1.0  0.5691185497668768  0.3338410014904391  0.8244868186213998  1.0000
  H   H570      1.0  0.5186154878925386  0.3474910306874062  0.8287430931584706  1.0000
  H   H571      1.0  0.5495113554012924  0.2612999127019531  0.8087472207129407  1.0000
  H   H572      1.0  0.4975323391503249  0.2751646654903563  0.80691113377822  1.0000
  C   C767      1.0  0.40352276841564516  0.2469900091911662  0.6604957684740237  1.0000
  C   C768      1.0  0.38236095390477665  0.2422131916405489  0.693047411418393  1.0000
  H   H573      1.0  0.38168194944122735  0.2534557073002842  0.641024150316243  1.0000
  H   H574      1.0  0.4183364106116167  0.21754782271508596  0.6543244097807905  1.0000
  H   H575      1.0  0.4038109837162505  0.24026811978159765  0.7134263006951554  1.0000
  H   H576      1.0  0.3651506162810901  0.2700097357438038  0.6988788426739073  1.0000
  C   C769      1.0  0.6883815035639722  0.4253826714094015  0.46103017818893544  1.0000
  C   C770      1.0  0.7214505699884731  0.395059223292929  0.44802675676859316  1.0000
  H   H577      1.0  0.6582935350694056  0.4173995849414552  0.44982454202019057  1.0000
  H   H578      1.0  0.6959205318229261  0.4564395385085649  0.45098077407947357  1.0000
  H   H579      1.0  0.7525283249718541  0.40729901474742825  0.45457155687227796  1.0000
  H   H580      1.0  0.72187023549203  0.39648367340695284  0.42136639145961824  1.0000
  C   C771      1.0  0.40182370132063816  0.760054975791731  0.3665638644758377  1.0000
  C   C772      1.0  0.39256798420915484  0.78570388453639  0.3362768085461304  1.0000
  H   H581      1.0  0.3779661945737658  0.76471510352433  0.3847978594976984  1.0000
  H   H582      1.0  0.3969321733498776  0.7270765576920977  0.3597701034318519  1.0000
  H   H583      1.0  0.3787055765745231  0.8146590704624278  0.34460263691504617  1.0000
  H   H584      1.0  0.3682457861946852  0.7696694951051595  0.32116679455400954  1.0000
  C   C773      1.0  0.6640246063296151  0.9308377320802271  0.3963290599729909  1.0000
  C   C774      1.0  0.6422331298465174  0.9732592560938034  0.3955893587176732  1.0000
  H   H585      1.0  0.6908316389192967  0.931993221525197  0.41268627252181245  1.0000
  H   H586      1.0  0.6776887108605695  0.9234443419560829  0.37282618966648856  1.0000
  H   H587      1.0  0.6224104052901989  0.9755797491543811  0.41754340471287915  1.0000
  H   H588      1.0  0.622595737530524  0.9738963329386963  0.3740733882231893  1.0000
  C   C775      1.0  0.5643637325761025  0.9082907090234054  0.647877757740109  1.0000
  C   C776      1.0  0.527466003905314  0.9312331399093865  0.661324042371564  1.0000
  H   H589      1.0  0.5838266534235838  0.9001140728998676  0.6688383538293059  1.0000
  H   H590      1.0  0.5836235625599642  0.9309033929641392  0.6354584369873963  1.0000
  H   H591      1.0  0.5393185776489419  0.9507740523325081  0.6811116494151113  1.0000
  H   H592      1.0  0.507046180761072  0.9095074107083193  0.6736284580749069  1.0000
  C   C777      1.0  0.6263523947175669  0.6325368194745418  0.6007140226842211  1.0000
  C   C778      1.0  0.6307336875661371  0.6102154815512014  0.6326504448434233  1.0000
  H   H593      1.0  0.6097498229277754  0.6114725278943451  0.5842419050860298  1.0000
  H   H594      1.0  0.6566613760714792  0.6367600437094721  0.5900541854999826  1.0000
  H   H595      1.0  0.6026919587436779  0.610037526076396  0.6458525562449674  1.0000
  H   H596      1.0  0.6535041328990033  0.6258259701161193  0.6484187690142249  1.0000
  C   C779      1.0  0.28579558726156146  0.6366898107804516  0.8164291020343468  1.0000
  C   C780      1.0  0.3288017880635339  0.6433008973415951  0.8313667584524129  1.0000
  H   H597      1.0  0.2706585860968822  0.6663327386728503  0.8121201626829815  1.0000
  H   H598      1.0  0.26467528008653696  0.6186442514751338  0.8320681580246074  1.0000
  H   H599      1.0  0.33729762970379906  0.6765605040033109  0.8339712729047938  1.0000
  H   H600      1.0  0.35302959623493096  0.6325537905803623  0.8155960404264161  1.0000
  C   C781      1.0  0.02158393435070649  0.7185494016150481  0.6382712168417598  1.0000
  C   C782      1.0  0.056908426362876935  0.6962907891741092  0.6544608595269171  1.0000
  H   H601      1.0  0.00033147069352890135  0.729521137547863  0.656548301257134  1.0000
  H   H602      1.0  0.003562200556872508  0.6956963901869295  0.6234676163146249  1.0000
  H   H603      1.0  0.04674037684598796  0.6757564902807307  0.6744519442620567  1.0000
  H   H604      1.0  0.07795046314979481  0.7173804835519914  0.6666958534295993  1.0000
  C   C783      1.0  0.4734957176291178  0.5774702099805654  0.6772431794196633  1.0000
  C   C784      1.0  0.49220637518874955  0.5549852332319822  0.6493260401332068  1.0000
  H   H605      1.0  0.478092680992422  0.611231579541409  0.6734632820664379  1.0000
  H   H606      1.0  0.4887932729326484  0.5703058662453679  0.7004372424059844  1.0000
  H   H607      1.0  0.47141498449606806  0.5586105699245395  0.6283869887407669  1.0000
  H   H608      1.0  0.520768336825292  0.5717876414500974  0.6429631730243575  1.0000
  C   C785      1.0  0.31934562508166253  0.7147497522127023  0.541150117717182  1.0000
  C   C786      1.0  0.3481186140130838  0.7153085365521819  0.570831528282503  1.0000
  H   H609      1.0  0.33415690866343467  0.6990705080359841  0.5204552395546528  1.0000
  H   H610      1.0  0.313733624235134  0.7472224386834042  0.5339350381588405  1.0000
  H   H611      1.0  0.33578417511431374  0.7317256577358352  0.5920362976016106  1.0000
  H   H612      1.0  0.3491068898891148  0.6824563486006914  0.5785205911694948  1.0000
  C   C787      1.0  0.19838941478741473  0.3841074305203985  0.6355996744439133  1.0000
  C   C788      1.0  0.2122397533193698  0.390597007711749  0.671093365423187  1.0000
  H   H613      1.0  0.22501944165578014  0.3789920052107262  0.6197212329341324  1.0000
  H   H614      1.0  0.18469179846129202  0.41371766144273087  0.6275587148432267  1.0000
  H   H615      1.0  0.18461727190048216  0.389155364179544  0.6866270917848588  1.0000
  H   H616      1.0  0.23121851289653308  0.3637911688169989  0.6788063668621308  1.0000
  C   C789      1.0  0.8162696634417472  0.36686398740137777  0.3172743860066096  1.0000
  C   C790      1.0  0.7833603628763259  0.3650080115886289  0.29135372195295234  1.0000
  H   H617      1.0  0.8460704225008657  0.3649803661539731  0.30525483907149575  1.0000
  H   H618      1.0  0.8147855805807608  0.33817441396607484  0.33196547533956994  1.0000
  H   H619      1.0  0.7548796552673408  0.35295708965483397  0.3025354195697452  1.0000
  H   H620      1.0  0.7929472540778701  0.3408870398021084  0.27423765730725147  1.0000
  C   C791      1.0  0.6729360032985799  0.6151723697020227  0.4157934965651858  1.0000
  C   C792      1.0  0.6900339943714823  0.6564204315746324  0.40262011142598414  1.0000
  H   H621      1.0  0.6466479136319864  0.6042380107975596  0.40083668930555794  1.0000
  H   H622      1.0  0.6616250719841926  0.6178088142210657  0.44004324969259145  1.0000
  H   H623      1.0  0.7183571023232649  0.6635796647942664  0.4154128735891486  1.0000
  H   H624      1.0  0.6986402050609744  0.6547740571035175  0.37740324079971654  1.0000
  C   C793      1.0  0.8609434716304536  0.39090747725668124  0.6402006641290934  1.0000
  C   C794      1.0  0.825193486749745  0.3628398712557579  0.6513871494562765  1.0000
  H   H625      1.0  0.8892637136043259  0.3788281714300614  0.6514589651121326  1.0000
  H   H626      1.0  0.855793453445906  0.4231839048276079  0.6493739172371109  1.0000
  H   H627      1.0  0.8290047534672466  0.3311679866212061  0.6416633096533623  1.0000
  H   H628      1.0  0.8258789412719002  0.3596952756937712  0.6780929980139604  1.0000
  C   C795      1.0  0.894435266761832  0.7074052242778335  0.3802112329436896  1.0000
  C   C796      1.0  0.9125028840428778  0.6640769787404661  0.37886588632398555  1.0000
  H   H629      1.0  0.8688722010711785  0.7097756847753957  0.3980358787271706  1.0000
  H   H630      1.0  0.8815468586995158  0.7162178634762262  0.35698604983983084  1.0000
  H   H631      1.0  0.9380550857346242  0.6609754687194276  0.3958383196579743  1.0000
  H   H632      1.0  0.9271873451792999  0.6588001435551151  0.35532471433436  1.0000
  C   C797      1.0  0.09155583056218324  0.47703909529531197  0.5226073153751402  1.0000
  C   C798      1.0  0.05781593368387876  0.4703454529990693  0.5476231021650108  1.0000
  H   H633      1.0  0.07901833995973488  0.48790222042872144  0.4994802803342848  1.0000
  H   H634      1.0  0.10604641137299739  0.44745012626458935  0.5159595794980617  1.0000
  H   H635      1.0  0.05221749779445891  0.5015555613731995  0.5581153694855852  1.0000
  H   H636      1.0  0.06713994751595807  0.4530769916596148  0.5690792262796145  1.0000
  C   C799      1.0  0.9218074655365112  0.22203944924427566  0.4443521890439567  1.0000
  C   C800      1.0  0.8887218103009055  0.24912432605641738  0.42782261892108053  1.0000
  H   H637      1.0  0.9521538856459361  0.2336436386000583  0.4386236935618361  1.0000
  H   H638      1.0  0.9209107223267111  0.19187608129623085  0.4331776729927495  1.0000
  H   H639      1.0  0.858754211012604  0.23346506293119923  0.4271667025975949  1.0000
  H   H640      1.0  0.8941260288503731  0.25351588197634395  0.40172002187258793  1.0000
