data_image0
_chemical_formula_structural       C6H4C38H24C6H4C38H24C6H4C38H24C6H4C38H24C6H4C38H24C6H4C38H24C6H4C38H24C6H4C38H24C6H4C38H24C6H4C38H24C6H4C38H24C6H4C38H24C6H4C38H24C6H4C38H24C6H4C38H24C6H4C38H24C6H4C38H24C6H4C38H24C6H4C38H24C6H4C38H24C6H4C38H24C6H4C38H24C6H4C38H24C6H4C38H24C6H4C38H24C6H4C38H24C6H4C38H24C6H4C38H24C6H4C38H24C6H4C38H24C6H4C38H24C6H4C38H24C2H4C2H4C2H4C2H4C2H4C2H4C2H4C2H4C2H4C2H4C2H4C2H4C2H4C2H4C2H4C2H4C2H4C2H4C2H4C2H4C2H4C2H4C2H4C2H4C2H4C2H4C2H4C2H4C2H4C2H4C2H4C2H4C2H4C2H4C2H4C2H4C2H4C2H4C2H4C2H4C2H4C2H4C2H4C2H4C2H4C2H4C2H4C2H4C2H4C2H4C2H4C2H4C2H4C2H4C2H4C2H4C2H4C2H4C2H4C2H4C2H4C2H4C2H4C2H4C2H4C2H4C2H4C2H4C2H4C2H4C2H4C2H4C2H4C2H4C2H4C2H4C2H4C2H4C2H4C2H4C2H4C2H4C2H4C2H4C2H4C2H4C2H4C2H4C2H4C2H4C2H4C2H4C2H4C2H4C2H4C2H4C6H4C38H24C6H4C38H24C6H4C38H24C6H4C38H24C6H4C38H24C6H4C38H24C6H4C38H24C6H4C38H24C6H4C38H24C6H4C38H24C6H4C38H24C6H4C38H24C6H4C38H24C6H4C38H24C6H4C38H24C6H4C38H24C6H4C38H24C6H4C38H24C6H4C38H24C6H4C38H24C6H4C38H24C6H4C38H24C6H4C38H24C6H4C38H24C6H4C38H24C6H4C38H24C6H4C38H24C6H4C38H24C6H4C38H24C6H4C38H24C6H4C38H24C6H4C38H24C2H4C2H4C2H4C2H4C2H4C2H4C2H4C2H4C2H4C2H4C2H4C2H4C2H4C2H4C2H4C2H4C2H4C2H4C2H4C2H4C2H4C2H4C2H4C2H4C2H4C2H4C2H4C2H4C2H4C2H4C2H4C2H4C2H4C2H4C2H4C2H4C2H4C2H4C2H4C2H4C2H4C2H4C2H4C2H4C2H4C2H4C2H4C2H4C2H4C2H4C2H4C2H4C2H4C2H4C2H4C2H4C2H4C2H4C2H4C2H4C2H4C2H4C2H4C2H4C2H4C2H4C2H4C2H4C2H4C2H4C2H4C2H4C2H4C2H4C2H4C2H4C2H4C2H4C2H4C2H4C2H4C2H4C2H4C2H4C2H4C2H4C2H4C2H4C2H4C2H4C2H4C2H4C2H4C2H4C2H4C2H4
_chemical_formula_sum              "C3200 H2560"
_cell_length_a       65.28311152744406
_cell_length_b       64.87679253779827
_cell_length_c       55.12639501840731
_cell_angle_alpha    90.88960000015533
_cell_angle_beta     89.8055000001013
_cell_angle_gamma    90.45519999970804

_space_group_name_H-M_alt    "P 1"
_space_group_IT_number       1

loop_
  _space_group_symop_operation_xyz
  'x, y, z'

loop_
  _atom_site_type_symbol
  _atom_site_label
  _atom_site_symmetry_multiplicity
  _atom_site_fract_x
  _atom_site_fract_y
  _atom_site_fract_z
  _atom_site_occupancy
  C   C1        1.0  0.43409733870398004  0.08007412765098122  0.20598534413522832  1.0000
  C   C2        1.0  0.41365573133177475  0.0833389473643949  0.2010397219813007  1.0000
  C   C3        1.0  0.4029242136762992  0.06869440193265428  0.18842167279547295  1.0000
  C   C4        1.0  0.41194437097867287  0.050297364906186304  0.18069354855149444  1.0000
  C   C5        1.0  0.43201254542403666  0.04694910555940858  0.18689952423085618  1.0000
  C   C6        1.0  0.443172124930459  0.06186124601624099  0.1989442731229785  1.0000
  H   H1        1.0  0.4070476223464982  0.09791623526135297  0.20644434721847982  1.0000
  H   H2        1.0  0.3868750001229055  0.07206497704864831  0.18564225491586286  1.0000
  H   H3        1.0  0.43964991769418693  0.032321264971739996  0.1829934624196287  1.0000
  H   H4        1.0  0.4590679354878437  0.058929614130311066  0.20354518940410848  1.0000
  C   C7        1.0  0.42644466462625236  0.01733928899030264  0.14055327536078877  1.0000
  C   C8        1.0  0.40887741182889425  0.014134593884174547  0.15387597592027225  1.0000
  C   C9        1.0  0.4007737978714923  0.9941798139964814  0.15411092018620534  1.0000
  C   C10       1.0  0.4120502028300971  0.9779015198047686  0.1459602591118344  1.0000
  C   C11       1.0  0.43110946462769145  0.980993485406417  0.1365860736131756  1.0000
  C   C12       1.0  0.43798139162981337  0.001004669160802967  0.13268364028481966  1.0000
  C   C13       1.0  0.3975250911501392  0.03272183292001098  0.16827796870989936  1.0000
  C   C14       1.0  0.38403816102775845  0.04159172161874324  0.1471195593892958  1.0000
  C   C15       1.0  0.36532520355165143  0.03275016983711196  0.1400815725874868  1.0000
  C   C16       1.0  0.3529181901968979  0.04173395790830908  0.12351010988895776  1.0000
  C   C17       1.0  0.35897806412839256  0.05939525014449927  0.1122648971975823  1.0000
  C   C18       1.0  0.3780352875938701  0.06736998324515735  0.11705032183273081  1.0000
  C   C19       1.0  0.3908343478596646  0.05808086562812572  0.13388140248071953  1.0000
  C   C20       1.0  0.39989197196363774  0.012936229541203336  0.20773971560362448  1.0000
  C   C21       1.0  0.3919634644474195  0.0047815082799005475  0.22855087911342037  1.0000
  C   C22       1.0  0.3708558702635615  0.004159090972332049  0.23255128147930823  1.0000
  C   C23       1.0  0.3594079144184894  0.017623406022786683  0.21864693511551472  1.0000
  C   C24       1.0  0.3678322522198145  0.027700241727541937  0.19901865702184532  1.0000
  C   C25       1.0  0.3879311450480565  0.024490454197455568  0.19275226710267218  1.0000
  C   C26       1.0  0.36115524747355426  0.9910355469045449  0.2545816152339462  1.0000
  C   C27       1.0  0.40535192313960966  0.9446278671113049  0.2738597447305106  1.0000
  C   C28       1.0  0.39661556105599405  0.95686161115675  0.29172095166573336  1.0000
  C   C29       1.0  0.3821061295871904  0.9708791898995555  0.28608773200764637  1.0000
  C   C30       1.0  0.3761495432630747  0.9731339269591243  0.262183286849851  1.0000
  C   C31       1.0  0.38447556564100466  0.9597931358928753  0.24441642046928863  1.0000
  C   C32       1.0  0.398815333028583  0.9455549046275639  0.2503834605515586  1.0000
  C   C33       1.0  0.3409733354718526  0.977704899576989  0.2486544884632633  1.0000
  C   C34       1.0  0.3312177023920548  0.977575026243227  0.2262703776286489  1.0000
  C   C35       1.0  0.3118170885616956  0.9705349673247834  0.22308456966742482  1.0000
  C   C36       1.0  0.3011783406460606  0.9628685243531981  0.24221030288338402  1.0000
  C   C37       1.0  0.3104809266448852  0.960940826100392  0.26414448184192574  1.0000
  C   C38       1.0  0.33018713709135866  0.9686423733154532  0.26781469226650223  1.0000
  C   C39       1.0  0.3370347020351908  0.016024877605643802  0.2777966486461463  1.0000
  C   C40       1.0  0.33274694897630896  0.030832305390554884  0.2946291806872836  1.0000
  C   C41       1.0  0.34790478013136567  0.03898537114778862  0.30880022054213635  1.0000
  C   C42       1.0  0.3677084450757689  0.03328908212594345  0.3046274652398497  1.0000
  C   C43       1.0  0.3720566331170702  0.01867778913726607  0.2870238805885072  1.0000
  C   C44       1.0  0.3564281526001159  0.008731420995828463  0.2744620728871885  1.0000
  H   H5        1.0  0.4326215194260898  0.03266606082029226  0.13817788904892617  1.0000
  H   H6        1.0  0.3861680108667575  0.9913204363949685  0.16232653110397707  1.0000
  H   H7        1.0  0.40573679491458803  0.9625725109248539  0.1478731952817175  1.0000
  H   H8        1.0  0.45244509277735256  0.0038416812793688367  0.12320840153818807  1.0000
  H   H9        1.0  0.35891892042763407  0.019108499440062612  0.1491170392100861  1.0000
  H   H10       1.0  0.3386201562379986  0.03418048236658108  0.11937890071555037  1.0000
  H   H11       1.0  0.38293871728440276  0.08090688935481194  0.10778480939607504  1.0000
  H   H12       1.0  0.40633461096083107  0.06348473179591925  0.1359113572232102  1.0000
  H   H13       1.0  0.41572574243313865  0.009448547303273009  0.20359598816431024  1.0000
  H   H14       1.0  0.4030199125639664  0.9970588661351001  0.23988081687984658  1.0000
  H   H15       1.0  0.34362142169678717  0.01991308257721724  0.22330409288115383  1.0000
  H   H16       1.0  0.357985501487916  0.03679542280288797  0.18787377188186832  1.0000
  H   H17       1.0  0.40168346621435863  0.9557259654368813  0.3102425424835789  1.0000
  H   H18       1.0  0.37591593969997666  0.9805002613719642  0.30091008453794293  1.0000
  H   H19       1.0  0.3802021489173322  0.9616889342659374  0.2260290835176906  1.0000
  H   H20       1.0  0.40584704364027624  0.9366721546165929  0.23579333092504143  1.0000
  H   H21       1.0  0.3390645261701856  0.9837211541624452  0.2113228424392837  1.0000
  H   H22       1.0  0.3043913900743689  0.9709340566757657  0.2058692326833386  1.0000
  H   H23       1.0  0.3015786673672627  0.9549276070188737  0.27946937924993254  1.0000
  H   H24       1.0  0.33649188576326217  0.968309839035982  0.28563598589013794  1.0000
  H   H25       1.0  0.3240836021240848  0.011397142261071188  0.2665900792973529  1.0000
  H   H26       1.0  0.3169470970914883  0.03481751851949345  0.29792928585896167  1.0000
  H   H27       1.0  0.38009893468085293  0.03922440104809489  0.31515187980879095  1.0000
  H   H28       1.0  0.3877272650814851  0.013490793936624517  0.2843460602293006  1.0000
  C   C45       1.0  0.4273487118687092  0.054967718796541436  0.451962012239285  1.0000
  C   C46       1.0  0.40700352074957385  0.05912704859372253  0.44790718263032386  1.0000
  C   C47       1.0  0.39476095633966307  0.044007711182054134  0.4379669538037026  1.0000
  C   C48       1.0  0.40194199547693715  0.024092391607822415  0.4333424523839075  1.0000
  C   C49       1.0  0.4222954465626479  0.020298655465370907  0.4387289352067289  1.0000
  C   C50       1.0  0.4347627318724258  0.03549383286417468  0.4479670525977045  1.0000
  H   H29       1.0  0.40074821933094973  0.07384325845153557  0.4529870586504989  1.0000
  H   H30       1.0  0.3787132009639632  0.047179501351398374  0.4362688238198156  1.0000
  H   H31       1.0  0.4282577974376045  0.004522319443518769  0.43834250178090844  1.0000
  H   H32       1.0  0.4504579715775027  0.03247986279669885  0.4523085323535184  1.0000
  C   C51       1.0  0.41455207160608504  0.9859400513974249  0.39665304782819294  1.0000
  C   C52       1.0  0.3972748676804901  0.9853978046520353  0.4117765644368285  1.0000
  C   C53       1.0  0.38785332712301823  0.9663649023147367  0.41475554887437405  1.0000
  C   C54       1.0  0.39567971843475536  0.9485765127668485  0.4051382550233211  1.0000
  C   C55       1.0  0.4135221336712233  0.9486300498214166  0.39188159285209995  1.0000
  C   C56       1.0  0.42253372600900113  0.9676952053218804  0.38772335148129944  1.0000
  C   C57       1.0  0.387117832613085  0.005487021089272285  0.42467400680376594  1.0000
  C   C58       1.0  0.3731240732173577  0.013260717278058694  0.40310086189094374  1.0000
  C   C59       1.0  0.35339947606818883  0.006195282534169755  0.3985126452998642  1.0000
  C   C60       1.0  0.341361337899578  0.015266786603686881  0.3812138532097322  1.0000
  C   C61       1.0  0.34915276671218265  0.03064576570732332  0.36720246660122785  1.0000
  C   C62       1.0  0.36936332139889216  0.03575973455375294  0.3689550238281883  1.0000
  C   C63       1.0  0.38116893644252164  0.027455275762557164  0.3871899644991811  1.0000
  C   C64       1.0  0.3889605009248918  0.9903411329152269  0.4668805195656778  1.0000
  C   C65       1.0  0.3821834723579876  0.9870781121322166  0.4900919244950064  1.0000
  C   C66       1.0  0.36273011012714623  0.9920843247580734  0.49733981903093477  1.0000
  C   C67       1.0  0.35051812406492144  0.002556192948210638  0.48095540462443437  1.0000
  C   C68       1.0  0.3578470172425423  0.0065229993635211566  0.4579326808044265  1.0000
  C   C69       1.0  0.37695524515164297  0.0002848051792371306  0.4501314426305862  1.0000
  C   C70       1.0  0.35400117656105173  0.9865752886959184  0.023952159707556278  1.0000
  C   C71       1.0  0.3981749808515748  0.9432451937878176  0.05113566483637464  1.0000
  C   C72       1.0  0.3926638069961392  0.9599578731974671  0.0655674111855485  1.0000
  C   C73       1.0  0.3769256931364062  0.9725685525188911  0.058796299298942256  1.0000
  C   C74       1.0  0.3670921115216534  0.9695253384618352  0.03687772281674821  1.0000
  C   C75       1.0  0.3713124301975069  0.9511707698105133  0.024181479825038467  1.0000
  C   C76       1.0  0.3868023766948218  0.938521786722329  0.030853171280964136  1.0000
  C   C77       1.0  0.33195436390963107  0.9757695169003697  0.024693458758214683  1.0000
  C   C78       1.0  0.3220651193330126  0.9678134494884635  0.004025298721772375  1.0000
  C   C79       1.0  0.3019560465715812  0.9623171330013662  0.004291992212831497  1.0000
  C   C80       1.0  0.29090948755198426  0.9644183398574572  0.025156090324337774  1.0000
  C   C81       1.0  0.30038479629953924  0.9709902474208507  0.04604835042631287  1.0000
  C   C82       1.0  0.3208884194263675  0.9758957887852465  0.045984851976060684  1.0000
  C   C83       1.0  0.33508814442430496  0.020707487825454063  0.03728012156720351  1.0000
  C   C84       1.0  0.33535665125191405  0.04012762784529735  0.04732974915240204  1.0000
  C   C85       1.0  0.35323131435980865  0.048475968424163504  0.05582257616156047  1.0000
  C   C86       1.0  0.371117306886249  0.037912214254052536  0.05422985360509201  1.0000
  C   C87       1.0  0.37136421999395813  0.018216591541777873  0.043698182070407585  1.0000
  C   C88       1.0  0.3531566140997506  0.008889631753333743  0.036440490630726  1.0000
  H   H33       1.0  0.4221502337933825  0.0004114989282429277  0.3923968374198605  1.0000
  H   H34       1.0  0.3730111269587024  0.964349429110165  0.4244073133127067  1.0000
  H   H35       1.0  0.38713807538181755  0.9345294526943264  0.40666040358793787  1.0000
  H   H36       1.0  0.43681860697272984  0.9681453595323242  0.3784816056074523  1.0000
  H   H37       1.0  0.34662240869438943  0.9947625139637254  0.41045761091301874  1.0000
  H   H38       1.0  0.3254825398909514  0.010806120018131467  0.3797080328180375  1.0000
  H   H39       1.0  0.3762450675764413  0.04766938427022777  0.3576087578888401  1.0000
  H   H40       1.0  0.3970727820699843  0.03263577601291261  0.388352893259514  1.0000
  H   H41       1.0  0.40433158335281894  0.9860666991839795  0.4623304020447495  1.0000
  H   H42       1.0  0.3930968348238773  0.9802297234505153  0.0020387043495967427  1.0000
  H   H43       1.0  0.33554582646199715  0.007355934913823351  0.48636365834448503  1.0000
  H   H44       1.0  0.3486811758161434  0.016606570200139063  0.44656101548497745  1.0000
  H   H45       1.0  0.40071800086129594  0.9627337044413585  0.08228201753336031  1.0000
  H   H46       1.0  0.3728120501802517  0.9853617974227001  0.07066796955809145  1.0000
  H   H47       1.0  0.36386450738984794  0.9480073441654099  0.007751750630857867  1.0000
  H   H48       1.0  0.390636296720005  0.9258002933442893  0.019379182744537232  1.0000
  H   H49       1.0  0.33101290705200354  0.9656789006674563  0.48778239514726246  1.0000
  H   H50       1.0  0.29440793720155456  0.9566275526999661  0.48789487811628063  1.0000
  H   H51       1.0  0.29140257948426856  0.9728844640307953  0.06241825090132709  1.0000
  H   H52       1.0  0.3275689315308104  0.9816649701730655  0.06268512581652987  1.0000
  H   H53       1.0  0.32117816245337344  0.014327671512611212  0.030325771295583816  1.0000
  H   H54       1.0  0.3214695443008502  0.04867292594202233  0.04838781475774708  1.0000
  H   H55       1.0  0.3853903123916573  0.0452230731652028  0.060011659636769146  1.0000
  H   H56       1.0  0.3854221721613205  0.009965430523557585  0.04156227562806754  1.0000
  C   C89       1.0  0.5295384960551763  0.8507459385085031  0.011617059616052264  1.0000
  C   C90       1.0  0.5456696020512214  0.8619668052668467  0.02174186936634938  1.0000
  C   C91       1.0  0.5415801030270774  0.879938875827527  0.03477229563052922  1.0000
  C   C92       1.0  0.5215727642388148  0.8875546945017632  0.03673185780531176  1.0000
  C   C93       1.0  0.5061652448679567  0.8756524021437903  0.026130337975349926  1.0000
  C   C94       1.0  0.5098958918092718  0.8574291045521034  0.014155255954361463  1.0000
  H   H57       1.0  0.560932222952898  0.8559854434451237  0.021344731916057836  1.0000
  H   H58       1.0  0.554607710555203  0.8878306933041947  0.042707061974042705  1.0000
  H   H59       1.0  0.4906303367457868  0.8799803283618667  0.02879074161677305  1.0000
  H   H60       1.0  0.4973206130437501  0.848171163571083  0.008178636677310608  1.0000
  C   C95       1.0  0.48759327599012164  0.920279030512048  0.027934056810799236  1.0000
  C   C96       1.0  0.49541780210110736  0.9182079382993398  0.051035518709119765  1.0000
  C   C97       1.0  0.4845072512635455  0.9266912459713533  0.0705251887570958  1.0000
  C   C98       1.0  0.4655981584742933  0.9356569321394355  0.06660044025907982  1.0000
  C   C99       1.0  0.4568401267829339  0.935273313502112  0.043910085470106316  1.0000
  C   C100      1.0  0.4681041760469672  0.9279186326406922  0.024443093440077487  1.0000
  C   C101      1.0  0.5162437171452161  0.9060848854112461  0.055155298161481764  1.0000
  C   C102      1.0  0.5317254718786387  0.9256303733538926  0.056101606494382956  1.0000
  C   C103      1.0  0.5332451089257187  0.9384481474350377  0.07640750376431499  1.0000
  C   C104      1.0  0.5475304432221701  0.9539097932588155  0.07789427462093408  1.0000
  C   C105      1.0  0.5593607025840202  0.9584406387525571  0.05769051914383629  1.0000
  C   C106      1.0  0.5575940219796672  0.946335322883802  0.03682347699781849  1.0000
  C   C107      1.0  0.5431616563464897  0.9304812297653462  0.035851769284816426  1.0000
  C   C108      1.0  0.49623456786715875  0.88171632681796  0.0834737927325221  1.0000
  C   C109      1.0  0.4923692941990545  0.8741949425302297  0.10624016423765466  1.0000
  C   C110      1.0  0.5064594580226657  0.8767367542333493  0.12473145722352272  1.0000
  C   C111      1.0  0.5255671418799083  0.8837311469351019  0.11883208834680722  1.0000
  C   C112      1.0  0.5294916387777888  0.8919432422107733  0.0965452208531505  1.0000
  C   C113      1.0  0.5142267854887385  0.892830554229849  0.07941569748897652  1.0000
  C   C114      1.0  0.4993756796362521  0.8755476956405424  0.1521887313849998  1.0000
  C   C115      1.0  0.46637835210323986  0.93480825548711  0.15278997099681624  1.0000
  C   C116      1.0  0.455933434727222  0.9162767810569126  0.14971809739775893  1.0000
  C   C117      1.0  0.46651222691897837  0.8983946983878379  0.15007441441574548  1.0000
  C   C118      1.0  0.4875610101518953  0.8976420235779481  0.15425315671477025  1.0000
  C   C119      1.0  0.4978342967565901  0.9163765426438791  0.15577131394822827  1.0000
  C   C120      1.0  0.48737543815272105  0.9346298276741675  0.15574464459912235  1.0000
  C   C121      1.0  0.5182046274750706  0.8722309033373341  0.17024061509512273  1.0000
  C   C122      1.0  0.5313230719759393  0.8557743207184287  0.16706115697892385  1.0000
  C   C123      1.0  0.5472950635143986  0.852616950693463  0.1829390351765554  1.0000
  C   C124      1.0  0.5503892211771025  0.8654656629877775  0.2023169479520876  1.0000
  C   C125      1.0  0.5373648017604074  0.8815734867226545  0.20593454537502656  1.0000
  C   C126      1.0  0.520651914273874  0.8843098839590872  0.19086364176802856  1.0000
  C   C127      1.0  0.474127882744868  0.856927258885974  0.18028244144214742  1.0000
  C   C128      1.0  0.46126063367387804  0.841128986772451  0.18600691744445397  1.0000
  C   C129      1.0  0.45996685101908413  0.8232880859840572  0.17193439089956394  1.0000
  C   C130      1.0  0.47183522782348625  0.8221135858045311  0.15157515493142007  1.0000
  C   C131      1.0  0.4847989797817991  0.8380779897666527  0.1452394609894003  1.0000
  C   C132      1.0  0.48573144293496784  0.8564847086126944  0.15920349589643085  1.0000
  H   H61       1.0  0.4967446690832323  0.9160126607699501  0.012274776563764436  1.0000
  H   H62       1.0  0.4912229590098353  0.9278473687899546  0.08855276163197931  1.0000
  H   H63       1.0  0.4578289311703987  0.943810109635132  0.08103744790841741  1.0000
  H   H64       1.0  0.46137799262183243  0.9284735456934177  0.006405583485511568  1.0000
  H   H65       1.0  0.5240459599884164  0.9349626748929577  0.09218523583469165  1.0000
  H   H66       1.0  0.5485836518073054  0.9631679909407116  0.09454084691490426  1.0000
  H   H67       1.0  0.5674915956391661  0.9485534020286918  0.020786126977982156  1.0000
  H   H68       1.0  0.5421882137484225  0.921337654264004  0.019481505961515044  1.0000
  H   H69       1.0  0.4845713361030286  0.8809327601223917  0.06962387361180188  1.0000
  H   H70       1.0  0.47728025502102694  0.8690000546779909  0.11148695046992121  1.0000
  H   H71       1.0  0.537588697594322  0.8846279172656214  0.13249949477908832  1.0000
  H   H72       1.0  0.544280207729859  0.898984407456302  0.09326089958196372  1.0000
  H   H73       1.0  0.43967697490446717  0.9162366433362288  0.14678755320654863  1.0000
  H   H74       1.0  0.45807128922628304  0.8844714055986609  0.1456619978197927  1.0000
  H   H75       1.0  0.5143372625794493  0.9165550413569881  0.15645020309349597  1.0000
  H   H76       1.0  0.49618833453053873  0.9488713545978819  0.1584545770317422  1.0000
  H   H77       1.0  0.5299785375886928  0.8451717994400748  0.15215534934258151  1.0000
  H   H78       1.0  0.5582526199336408  0.8404032745587401  0.18006092256283907  1.0000
  H   H79       1.0  0.5383086019239921  0.8910696986224876  0.22239515792182962  1.0000
  H   H80       1.0  0.5091100622994734  0.8956694503210829  0.19536840325306237  1.0000
  H   H81       1.0  0.4746565112092834  0.8698335401850071  0.19279580889713083  1.0000
  H   H82       1.0  0.45276252512485543  0.8429214444714447  0.20260904082324765  1.0000
  H   H83       1.0  0.47164287060806837  0.8079025449256266  0.1405295087979801  1.0000
  H   H84       1.0  0.4945072025520973  0.8364934592186186  0.12920991220773778  1.0000
  C   C133      1.0  0.5488578617339827  0.8591497367372493  0.26172065528372795  1.0000
  C   C134      1.0  0.558792200971146  0.8690351128567484  0.28069399221908187  1.0000
  C   C135      1.0  0.5487691737842793  0.8824455129417473  0.2959045924166347  1.0000
  C   C136      1.0  0.5282770656796343  0.8863149096681511  0.2920729145042741  1.0000
  C   C137      1.0  0.5180798808054488  0.874607654083325  0.2742770202607393  1.0000
  C   C138      1.0  0.5284994056301419  0.8606837761818827  0.2598719432606713  1.0000
  H   H85       1.0  0.5751067524340546  0.8673218382449369  0.282041973605864  1.0000
  H   H86       1.0  0.5578474695104632  0.8900373086807241  0.3100847034786663  1.0000
  H   H87       1.0  0.5021483250794115  0.8764875253734313  0.2717679243550599  1.0000
  H   H88       1.0  0.521225291761774  0.8529196049607009  0.24477564027357243  1.0000
  C   C139      1.0  0.4943033660243582  0.9177562894938511  0.278790852952952  1.0000
  C   C140      1.0  0.49762480385476865  0.9127574091844582  0.30278238169966465  1.0000
  C   C141      1.0  0.4827588208255443  0.9191916200399538  0.3194226041486096  1.0000
  C   C142      1.0  0.4654236380387142  0.9295286336700858  0.31206222664366307  1.0000
  C   C143      1.0  0.4624060516176648  0.9328990578092298  0.28766612205677217  1.0000
  C   C144      1.0  0.47708923785360957  0.9274080476930882  0.27113112561110225  1.0000
  C   C145      1.0  0.5177327177048503  0.9017179540438182  0.311347415517967  1.0000
  C   C146      1.0  0.5318465214495618  0.9212106228095398  0.3185826103638449  1.0000
  C   C147      1.0  0.5327392061938961  0.9299482802951888  0.3417014889799489  1.0000
  C   C148      1.0  0.5471717797655454  0.944631362370524  0.347390950122545  1.0000
  C   C149      1.0  0.5600412455688538  0.9517509640519788  0.32981457909273926  1.0000
  C   C150      1.0  0.5578473401851699  0.9444929388279739  0.30621674073759014  1.0000
  C   C151      1.0  0.5436754044632618  0.930007769591136  0.30045652417899876  1.0000
  C   C152      1.0  0.4966022678958449  0.872178239469183  0.32810556366023746  1.0000
  C   C153      1.0  0.48995481011722425  0.8595152669677073  0.34541886968185564  1.0000
  C   C154      1.0  0.4999436124417471  0.858496452264662  0.367193395394049  1.0000
  C   C155      1.0  0.5169493661215543  0.8710180930535578  0.37074930860817157  1.0000
  C   C156      1.0  0.5238029574564312  0.8834801674813388  0.35257786638743094  1.0000
  C   C157      1.0  0.5125976360163426  0.8855395305350067  0.331628820528516  1.0000
  C   C158      1.0  0.4891802117441429  0.8464020306151827  0.3892872275989391  1.0000
  C   C159      1.0  0.44629089384768805  0.8978189283435305  0.4002398031467237  1.0000
  C   C160      1.0  0.440425804139715  0.8809624930646222  0.3863626704044668  1.0000
  C   C161      1.0  0.45324512924867866  0.8641004754563236  0.3843506766521903  1.0000
  C   C162      1.0  0.47217208742084876  0.8635912988931539  0.3962502862294505  1.0000
  C   C163      1.0  0.47801924837022103  0.8815252687877085  0.4091967131151539  1.0000
  C   C164      1.0  0.4650760150540777  0.8979877438897453  0.4116531960191957  1.0000
  C   C165      1.0  0.5023759523852904  0.8408088175131685  0.4120414436864519  1.0000
  C   C166      1.0  0.5229248600952912  0.8356924386040312  0.4102580443550833  1.0000
  C   C167      1.0  0.5342252944865841  0.831007361770657  0.4303380685662611  1.0000
  C   C168      1.0  0.5256339418141569  0.8313125994124457  0.452929002924554  1.0000
  C   C169      1.0  0.5051463116334771  0.8340735260240961  0.4551695910977384  1.0000
  C   C170      1.0  0.49373416455807445  0.8396965453356812  0.4354977712096104  1.0000
  C   C171      1.0  0.46388265832718734  0.8145805497570863  0.39196686219958143  1.0000
  C   C172      1.0  0.4563877683142382  0.7957477938101297  0.384394218446649  1.0000
  C   C173      1.0  0.46474818052836475  0.7856245013577209  0.36456093107073684  1.0000
  C   C174      1.0  0.4814579622402717  0.7945952166851552  0.3536446403516677  1.0000
  C   C175      1.0  0.4895748261017698  0.8130480981237834  0.3617506710867185  1.0000
  C   C176      1.0  0.480373354945353  0.8241748169908318  0.3806441813988983  1.0000
  H   H89       1.0  0.5055863720813285  0.9139944964380998  0.2652783827392863  1.0000
  H   H90       1.0  0.4837605022182133  0.9163887652534218  0.33845943953421576  1.0000
  H   H91       1.0  0.45458314161905067  0.9341289651534038  0.325808734002544  1.0000
  H   H92       1.0  0.47572545245371417  0.930483867596193  0.2519872499807853  1.0000
  H   H93       1.0  0.5229894219309891  0.9247746652410526  0.3562879901235945  1.0000
  H   H94       1.0  0.5493444502241522  0.9496381676205108  0.36578372979845036  1.0000
  H   H95       1.0  0.567413506064716  0.9510149234405908  0.29206928602140253  1.0000
  H   H96       1.0  0.5416046945579285  0.924927381812373  0.2820945866075016  1.0000
  H   H97       1.0  0.48705569853669645  0.8720956826843708  0.312005985159154  1.0000
  H   H98       1.0  0.4761485514114979  0.8507369055533931  0.3410955323403994  1.0000
  H   H99       1.0  0.5246477670756652  0.8719553046421639  0.3884236486755093  1.0000
  H   H100      1.0  0.5377668027752568  0.8922167226720887  0.3552484297808944  1.0000
  H   H101      1.0  0.4262168957171315  0.8805521719271908  0.37615756232822223  1.0000
  H   H102      1.0  0.44900769310164107  0.8509810271722831  0.3729735686084339  1.0000
  H   H103      1.0  0.49298482314027586  0.8823423042797133  0.4178633444538597  1.0000
  H   H104      1.0  0.4704201334414156  0.9111585769979238  0.4213140316647072  1.0000
  H   H105      1.0  0.5306137320547181  0.8350138159282372  0.393140676408529  1.0000
  H   H106      1.0  0.5507878858641425  0.8290197794581301  0.42829704695101223  1.0000
  H   H107      1.0  0.4973187884292121  0.831983939894858  0.47241939866910443  1.0000
  H   H108      1.0  0.47748014209185446  0.8426515464338148  0.4388976596602562  1.0000
  H   H109      1.0  0.4566129894468407  0.8225682646980412  0.4069488679762264  1.0000
  H   H110      1.0  0.44350764975359086  0.7887662327895929  0.3943108621346051  1.0000
  H   H111      1.0  0.48860021759829186  0.7871896871612458  0.33769020116544635  1.0000
  H   H112      1.0  0.5027524435905497  0.8193862135276145  0.35154919149334546  1.0000
  C   C177      1.0  0.47097901404030174  0.12575110020012908  0.2080826072349863  1.0000
  C   C178      1.0  0.469666137223111  0.1465502330736412  0.21358157302682587  1.0000
  C   C179      1.0  0.48742984412922424  0.15752269645106062  0.21938170289700434  1.0000
  C   C180      1.0  0.5061387588832865  0.14770810144903787  0.220798625458346  1.0000
  C   C181      1.0  0.5071426447238424  0.12693224197203146  0.21467918909547082  1.0000
  C   C182      1.0  0.4895086388948576  0.11601260477064322  0.20866497873587067  1.0000
  H   H113      1.0  0.4552602082663164  0.1543733953805897  0.21302641514747814  1.0000
  H   H114      1.0  0.4864542967890588  0.17437452036514206  0.22190712697560566  1.0000
  H   H115      1.0  0.5216011107428358  0.11952591050219026  0.21515452035164434  1.0000
  H   H116      1.0  0.4907500191612551  0.09994369611563492  0.20373024203055773  1.0000
  C   C183      1.0  0.5413665480216153  0.13377747883224775  0.2552129712535965  1.0000
  C   C184      1.0  0.5438650739855824  0.15047347012054463  0.2402182657869011  1.0000
  C   C185      1.0  0.5634214660137293  0.158615496056475  0.23751686028902938  1.0000
  C   C186      1.0  0.5801710057984217  0.14985611246476804  0.24832792500482345  1.0000
  C   C187      1.0  0.5775690375501222  0.13134850696847364  0.2596850763927863  1.0000
  C   C188      1.0  0.5582754838233165  0.12367412306629856  0.2638941165237885  1.0000
  C   C189      1.0  0.5254942347615515  0.16152028090258927  0.2273897645945232  1.0000
  C   C190      1.0  0.5205253873687644  0.17887552941789134  0.24730650707648108  1.0000
  C   C191      1.0  0.5300761853185922  0.1980205200313166  0.24710331203567412  1.0000
  C   C192      1.0  0.5259454917251223  0.21250614201763013  0.26436763353852627  1.0000
  C   C193      1.0  0.5122131702071931  0.20841821195630036  0.28297267946241755  1.0000
  C   C194      1.0  0.5037239109909092  0.1893005822448338  0.28431703236632816  1.0000
  C   C195      1.0  0.5081416673308715  0.17456910746314566  0.2672286922827463  1.0000
  C   C196      1.0  0.541688071450701  0.15515462501254298  0.18536104749331744  1.0000
  C   C197      1.0  0.5463478465907959  0.16029651515802068  0.16209249395876188  1.0000
  C   C198      1.0  0.542213377115522  0.17973514017274272  0.15316932888103718  1.0000
  C   C199      1.0  0.5303981108971864  0.1924997869750066  0.16768580030526178  1.0000
  C   C200      1.0  0.5247473261545325  0.1867167141467168  0.1907711154548039  1.0000
  C   C201      1.0  0.531397278897511  0.16869891878632115  0.2008365269404937  1.0000
  C   C202      1.0  0.5485588219739005  0.18466486283312872  0.12533124544219054  1.0000
  C   C203      1.0  0.6006267032645  0.14625183529419125  0.10421129804002544  1.0000
  C   C204      1.0  0.5859389813122351  0.15054091689140398  0.08749016042304482  1.0000
  C   C205      1.0  0.5706858125752912  0.16448943738469476  0.09317436026547718  1.0000
  C   C206      1.0  0.5688119046109316  0.17352844160267158  0.11611743888645439  1.0000
  C   C207      1.0  0.5855825963827228  0.1711200467842187  0.13116385023406943  1.0000
  C   C208      1.0  0.6007457024687597  0.15741624466569534  0.12551012964775812  1.0000
  C   C209      1.0  0.5545301841525172  0.20794485998187537  0.11875824872037112  1.0000
  C   C210      1.0  0.5605220763483332  0.22232014879515136  0.13607191759027645  1.0000
  C   C211      1.0  0.5621038585536856  0.24298350785369144  0.13119160812803682  1.0000
  C   C212      1.0  0.5584017184623623  0.24963768161484678  0.1077697511921581  1.0000
  C   C213      1.0  0.5548210999907695  0.23537621444552212  0.08961826562721104  1.0000
  C   C214      1.0  0.5534844698616191  0.21484369712057547  0.09483602399650516  1.0000
  C   C215      1.0  0.5121323694815217  0.19088804630846817  0.10897803598838544  1.0000
  C   C216      1.0  0.49425211941514186  0.18480250931781958  0.09797919728398849  1.0000
  C   C217      1.0  0.49092340848903004  0.16413483449417812  0.09293469897181106  1.0000
  C   C218      1.0  0.5060657027393641  0.15021685687359004  0.09769200286470503  1.0000
  C   C219      1.0  0.5239245786869802  0.15652310405128833  0.10767087503390825  1.0000
  C   C220      1.0  0.528096087064308  0.1769719712405417  0.113072234636503  1.0000
  H   H117      1.0  0.525954680280081  0.1283104764155211  0.2595780361480755  1.0000
  H   H118      1.0  0.5658300511163656  0.17206249447977834  0.2262467924899838  1.0000
  H   H119      1.0  0.5953750386133425  0.15698406013888552  0.24676404888718384  1.0000
  H   H120      1.0  0.5570031693949133  0.10907990698173668  0.27371823389852  1.0000
  H   H121      1.0  0.5412075714337453  0.2016248714978116  0.23356362820047172  1.0000
  H   H122      1.0  0.5319157670360298  0.2275553026335927  0.2616879989378839  1.0000
  H   H123      1.0  0.4933708104905623  0.185878128352645  0.29937886476614733  1.0000
  H   H124      1.0  0.5017839021958616  0.1592628770108937  0.2686474290855238  1.0000
  H   H125      1.0  0.5455991943396726  0.13972413799109318  0.19079288635203326  1.0000
  H   H126      1.0  0.5541453510883622  0.1490236810643543  0.1505733308105841  1.0000
  H   H127      1.0  0.5253577618458994  0.2071986070997143  0.16087677077264784  1.0000
  H   H128      1.0  0.5150386937540447  0.19713587425682141  0.2013517715082543  1.0000
  H   H129      1.0  0.5863266128805984  0.14325413221108454  0.06952681169498783  1.0000
  H   H130      1.0  0.5585259548172886  0.16711326827285172  0.07973881388868836  1.0000
  H   H131      1.0  0.5865317376810426  0.17896152204813073  0.14815041137310417  1.0000
  H   H132      1.0  0.6131810789279903  0.15561087182295702  0.1380646803833337  1.0000
  H   H133      1.0  0.5625020096051045  0.21823853789710232  0.15445453751414148  1.0000
  H   H134      1.0  0.5654533717056841  0.2534315211327286  0.14571860215258892  1.0000
  H   H135      1.0  0.5526324163009699  0.2405036717248831  0.07105893858750134  1.0000
  H   H136      1.0  0.5491413233311099  0.20435332258445396  0.08001856991808516  1.0000
  H   H137      1.0  0.5136073042214335  0.2067645714569682  0.11375965071651883  1.0000
  H   H138      1.0  0.48239200645620134  0.196155034087329  0.09539517320701159  1.0000
  H   H139      1.0  0.5036316400372758  0.13386765498827805  0.09329101598979762  1.0000
  H   H140      1.0  0.5355434103174521  0.14503178136554526  0.11068269724144135  1.0000
  C   C221      1.0  0.47187153658182407  0.09433279862419196  0.4466245139352296  1.0000
  C   C222      1.0  0.47051379270324456  0.11522492750258262  0.4429162044405018  1.0000
  C   C223      1.0  0.48610681921417553  0.1277577703374854  0.4503890649144665  1.0000
  C   C224      1.0  0.5028753485760441  0.1202282439738878  0.4622378757315249  1.0000
  C   C225      1.0  0.5034022675367317  0.09932562104186787  0.46665918211051305  1.0000
  C   C226      1.0  0.4881994869467957  0.08606034418263263  0.45889785724825977  1.0000
  H   H141      1.0  0.4577201973645456  0.12164811894132471  0.43391938116048456  1.0000
  H   H142      1.0  0.48391321974229085  0.14420947166379838  0.44870363462062984  1.0000
  H   H143      1.0  0.5153185547475898  0.09217102382834746  0.4761712499582909  1.0000
  H   H144      1.0  0.48805808919233085  0.06955010551511681  0.4627513060578497  1.0000
  C   C227      1.0  0.556385246498758  0.13191800076156607  0.4950085187859616  1.0000
  C   C228      1.0  0.5425743005833945  0.1248379408413877  0.47776052545603137  1.0000
  C   C229      1.0  0.5504484652948931  0.11180409716296993  0.4597632504131253  1.0000
  C   C230      1.0  0.570122471575366  0.10486178265099384  0.45998458786829005  1.0000
  C   C231      1.0  0.5833232104020478  0.11185870213887242  0.47773149759305894  1.0000
  C   C232      1.0  0.5765763417084655  0.1253959001965579  0.49554734849238724  1.0000
  C   C233      1.0  0.5205354639222921  0.1350165875471568  0.4730053986528603  1.0000
  C   C234      1.0  0.5091078946274759  0.1439072174049779  0.49603537943861126  1.0000
  C   C235      1.0  0.49729220578382555  0.16200093197472776  0.4949178067141727  1.0000
  C   C236      1.0  0.48576989535577836  0.1682464674794279  0.01468439761152013  1.0000
  C   C237      1.0  0.48389554382950184  0.1564398709440462  0.03487353030264556  1.0000
  C   C238      1.0  0.49531750943171143  0.13852736307952576  0.03597441200587494  1.0000
  C   C239      1.0  0.5082170690366773  0.13276390346692737  0.017303363978550115  1.0000
  C   C240      1.0  0.5261070131413093  0.14870648149143473  0.4293366072937123  1.0000
  C   C241      1.0  0.5341725134637042  0.16216989168162807  0.41329689876000947  1.0000
  C   C242      1.0  0.5435779405020387  0.18018706341981103  0.42062280567767624  1.0000
  C   C243      1.0  0.5459170112204951  0.18353363711308726  0.44532733130864915  1.0000
  C   C244      1.0  0.5380545747206792  0.1696599858069669  0.46153757853731503  1.0000
  C   C245      1.0  0.527621831737285  0.15195971894667662  0.45383612364244247  1.0000
  C   C246      1.0  0.5546121580798605  0.19432323151931308  0.4010543975513875  1.0000
  C   C247      1.0  0.6021515619651414  0.14839884802381012  0.3909508869955464  1.0000
  C   C248      1.0  0.5880422289017148  0.1508047853012152  0.3730025964714063  1.0000
  C   C249      1.0  0.5732089182331512  0.16602087831925408  0.37517968619433856  1.0000
  C   C250      1.0  0.5733744174011816  0.1796596151106965  0.39508735746911755  1.0000
  C   C251      1.0  0.5887671518836292  0.1772014473001928  0.4124405768023228  1.0000
  C   C252      1.0  0.6028953521769844  0.16193617416540207  0.41029795766667043  1.0000
  C   C253      1.0  0.5586184365890712  0.2173513181170383  0.4108168307173025  1.0000
  C   C254      1.0  0.543322007843543  0.22934907172745445  0.4214101864608034  1.0000
  C   C255      1.0  0.5456318959734704  0.2501062815309045  0.4262306259556624  1.0000
  C   C256      1.0  0.563750198946369  0.25931161773735484  0.42048855181142875  1.0000
  C   C257      1.0  0.5798887753784818  0.24770823984525586  0.4116332393634021  1.0000
  C   C258      1.0  0.5775516063463979  0.22712696986223294  0.4061270166058195  1.0000
  C   C259      1.0  0.5486223754344763  0.20825266061309525  0.35783009534400484  1.0000
  C   C260      1.0  0.5357192346932571  0.21629588958684703  0.34074538374329455  1.0000
  C   C261      1.0  0.5150310183048494  0.21391694211708923  0.3426956932867546  1.0000
  C   C262      1.0  0.5070636219960789  0.2035278393392811  0.36236932741631844  1.0000
  C   C263      1.0  0.5197402442823231  0.19713441881779495  0.38019243528138985  1.0000
  C   C264      1.0  0.5404634037633765  0.19936849507246016  0.37847797712458076  1.0000
  H   H145      1.0  0.5508897793839896  0.1426431693431621  0.008671638645068602  1.0000
  H   H146      1.0  0.541204053794438  0.10706548321341831  0.444060990786477  1.0000
  H   H147      1.0  0.575073828231738  0.0941908535051997  0.44587704646368953  1.0000
  H   H148      1.0  0.5862544440219055  0.13040001870413676  0.010671495122139746  1.0000
  H   H149      1.0  0.49641714817550875  0.17107474439502376  0.47837011057845236  1.0000
  H   H150      1.0  0.4771939057134405  0.18243761215270113  0.012983709547208584  1.0000
  H   H151      1.0  0.4947948770452328  0.1287670842031429  0.051943546547726066  1.0000
  H   H152      1.0  0.5162096081074011  0.11812014044399827  0.01930425457323965  1.0000
  H   H153      1.0  0.5199733174596723  0.13459004505494343  0.4221268118279352  1.0000
  H   H154      1.0  0.5321882221597681  0.1591602715252731  0.3945376423140772  1.0000
  H   H155      1.0  0.5534391776507454  0.19713004119712738  0.4530088295477282  1.0000
  H   H156      1.0  0.5395531926334456  0.17241564163247697  0.4806995965819898  1.0000
  H   H157      1.0  0.5867836415260667  0.13971907006706683  0.3583108693244857  1.0000
  H   H158      1.0  0.5612229356835318  0.16671879337697404  0.3620445781993144  1.0000
  H   H159      1.0  0.5893221739876755  0.18614395063787045  0.428875789969025  1.0000
  H   H160      1.0  0.6139506930645793  0.15999076027146694  0.42456696655905507  1.0000
  H   H161      1.0  0.5284100036506887  0.2224207115968121  0.42424766006635833  1.0000
  H   H162      1.0  0.5332059720596124  0.25977918279835605  0.432582285222317  1.0000
  H   H163      1.0  0.5942641530043925  0.25527493480018554  0.4075221682699318  1.0000
  H   H164      1.0  0.5899883531815668  0.21877757804149525  0.39750755554444384  1.0000
  H   H165      1.0  0.5647755194766835  0.21132930172320125  0.35653835544173174  1.0000
  H   H166      1.0  0.542418598160727  0.22429864271760766  0.3256200528932232  1.0000
  H   H167      1.0  0.49073910468149123  0.20197325745043687  0.3651160889500845  1.0000
  H   H168      1.0  0.5123222522666624  0.19153083574346907  0.3966584905525003  1.0000
  C   C265      1.0  0.7036546167191995  0.015137474740202772  0.14288802266448997  1.0000
  C   C266      1.0  0.692025542134844  0.0007016158977295881  0.13081968863370255  1.0000
  C   C267      1.0  0.6785359259578119  0.006934198254698623  0.11348751450115231  1.0000
  C   C268      1.0  0.6740642335149416  0.027303435940133125  0.10987935113367937  1.0000
  C   C269      1.0  0.6861599488156316  0.04179416964672208  0.12282686656424421  1.0000
  C   C270      1.0  0.7012393257113677  0.03528829998479682  0.13842027170474597  1.0000
  H   H169      1.0  0.6935541021847936  0.9847307129761985  0.13617841356255656  1.0000
  H   H170      1.0  0.669694961066321  0.9950377076363014  0.1045846689275083  1.0000
  H   H171      1.0  0.6847575351151216  0.0577771261859439  0.1201118542556042  1.0000
  H   H172      1.0  0.709761907991884  0.04680464679254649  0.14833346833397407  1.0000
  C   C271      1.0  0.6402120330483552  0.060723420366701114  0.11897668338923864  1.0000
  C   C272      1.0  0.6443502046078746  0.05456201772151029  0.09531226237339657  1.0000
  C   C273      1.0  0.6351007157027404  0.0652038018337784  0.07671846474640712  1.0000
  C   C274      1.0  0.6225479493060257  0.08178646728161036  0.08222650174542555  1.0000
  C   C275      1.0  0.6199417336143307  0.08861250866845341  0.1055260788085329  1.0000
  C   C276      1.0  0.6282166027913813  0.07761862512090478  0.12382451792977789  1.0000
  C   C277      1.0  0.657691691284374  0.03451723623706224  0.08994011205791784  1.0000
  C   C278      1.0  0.6393639398615424  0.018206610666186434  0.0855890168224943  1.0000
  C   C279      1.0  0.6310857035569035  0.014362059085193696  0.0628645542945282  1.0000
  C   C280      1.0  0.6159496320622371  0.0001522171471623191  0.05862031787967191  1.0000
  C   C281      1.0  0.6094377932951303  0.9883288936727931  0.07742529320978578  1.0000
  C   C282      1.0  0.6153589616927868  0.9934489255061469  0.1008665625290273  1.0000
  C   C283      1.0  0.6298672313163514  0.008344517213139254  0.10478115127500294  1.0000
  C   C284      1.0  0.6818959028579683  0.05679249751492202  0.06351514127339776  1.0000
  C   C285      1.0  0.6908279733419119  0.061136520123201345  0.04174297407507091  1.0000
  C   C286      1.0  0.6919131776059502  0.04594154126891641  0.023695263120250283  1.0000
  C   C287      1.0  0.6869133688413351  0.02577534546968934  0.0296211199219281  1.0000
  C   C288      1.0  0.6781016204175093  0.02177166841430617  0.052036798557524994  1.0000
  C   C289      1.0  0.6729268930674907  0.03783277269334491  0.06807106436692051  1.0000
  C   C290      1.0  0.6936104606054104  0.05335530566351652  0.4961732617877303  1.0000
  C   C291      1.0  0.6308052576800166  0.07854195356933992  0.49564350328848344  1.0000
  C   C292      1.0  0.6478503002645895  0.09124770769814035  0.49508471692626416  1.0000
  C   C293      1.0  0.6671688681940333  0.08347983837117087  0.49519175717097497  1.0000
  C   C294      1.0  0.6706202681017205  0.06251232634020837  0.49452230208117337  1.0000
  C   C295      1.0  0.6531888004365052  0.049674668015409235  0.4964653546588903  1.0000
  C   C296      1.0  0.6335860488388543  0.057791849300016844  0.4959972803684599  1.0000
  C   C297      1.0  0.6976002460120072  0.03524026838344022  0.4769223459127025  1.0000
  C   C298      1.0  0.7140648418434175  0.02204110636079263  0.4787220734169931  1.0000
  C   C299      1.0  0.7179546441286876  0.007706098069541625  0.4604091203642619  1.0000
  C   C300      1.0  0.7050976906968689  0.005388203108139618  0.4408896967567391  1.0000
  C   C301      1.0  0.6884433351049022  0.01822731961809699  0.4396378701660531  1.0000
  C   C302      1.0  0.68574782238061  0.03367191126519464  0.4563742474110942  1.0000
  C   C303      1.0  0.7139070868412071  0.07956039588432476  0.4709498631061252  1.0000
  C   C304      1.0  0.7301862006793456  0.09302126520861934  0.4676733430731122  1.0000
  C   C305      1.0  0.7449023655993553  0.09611578991750436  0.48518984413553745  1.0000
  C   C306      1.0  0.7450063565267174  0.08318436094751469  0.004672982914344703  1.0000
  C   C307      1.0  0.7300083984778646  0.06843077521730992  0.007220191069204075  1.0000
  C   C308      1.0  0.7131767297487595  0.06783897434347098  0.49146167677901786  1.0000
  H   H173      1.0  0.6464256261724293  0.05149216190616837  0.13340099134852582  1.0000
  H   H174      1.0  0.637731484007415  0.06020465926750943  0.05790097115038639  1.0000
  H   H175      1.0  0.6141277054768942  0.08985412204635591  0.06810825631635394  1.0000
  H   H176      1.0  0.6256620021387789  0.0820691380771298  0.1423468344441977  1.0000
  H   H177      1.0  0.636300956636387  0.023282374739944257  0.04752695719647098  1.0000
  H   H178      1.0  0.6106623032453958  0.9981182285195189  0.040584762342470986  1.0000
  H   H179      1.0  0.6087017597821087  0.9852799241352033  0.11538067543938542  1.0000
  H   H180      1.0  0.6347374321141042  0.011493804105050623  0.123384564381602  1.0000
  H   H181      1.0  0.6794547846231069  0.0696351088272123  0.07625020903183313  1.0000
  H   H182      1.0  0.6949185645401882  0.0768982395123397  0.038416199554286955  1.0000
  H   H183      1.0  0.6879250689937351  0.01347715009782888  0.016338133107473774  1.0000
  H   H184      1.0  0.6724508493037947  0.0063765445002059926  0.055055514882514034  1.0000
  H   H185      1.0  0.6460485798586766  0.10758803461588187  0.4963891565185877  1.0000
  H   H186      1.0  0.6796631197857332  0.09420715915809257  0.4966104939737525  1.0000
  H   H187      1.0  0.6547570786916778  0.03342126742350854  0.49828503881897446  1.0000
  H   H188      1.0  0.6205894771179721  0.04765533203936318  0.4977716084926497  1.0000
  H   H189      1.0  0.7238827859411943  0.02400467776631698  0.49403789961782096  1.0000
  H   H190      1.0  0.7311496535098155  0.9983169757552011  0.4622759748016762  1.0000
  H   H191      1.0  0.6774969780401708  0.016843255121760985  0.42520376530301274  1.0000
  H   H192      1.0  0.6725075904148726  0.043351659375478115  0.453449690216622  1.0000
  H   H193      1.0  0.7025271789996025  0.07764537610557183  0.4566754114894332  1.0000
  H   H194      1.0  0.7307765402542076  0.10216054708338226  0.45202369644810136  1.0000
  H   H195      1.0  0.756467399613025  0.08402708413647973  0.018510342520943714  1.0000
  H   H196      1.0  0.7309203668692571  0.05841950965952624  0.022203049539323845  1.0000
  C   C309      1.0  0.7023254587963458  0.007686374730667994  0.38138439190469525  1.0000
  C   C310      1.0  0.6879305135220612  0.9964968257740888  0.3689840516911607  1.0000
  C   C311      1.0  0.6718229926496091  0.006270594141948592  0.3582255999770042  1.0000
  C   C312      1.0  0.6678586529128143  0.026916291807493765  0.36274487539352424  1.0000
  C   C313      1.0  0.6830662429839645  0.037890158620027564  0.37480776670000426  1.0000
  C   C314      1.0  0.7000421507400587  0.028704797218779193  0.3834943546945037  1.0000
  H   H197      1.0  0.6892102375118683  0.9801293123670041  0.36707728394215927  1.0000
  H   H198      1.0  0.661204237595725  0.9967089153115591  0.3480567767294751  1.0000
  H   H199      1.0  0.6816458028378092  0.054532147805890434  0.3769902991472438  1.0000
  H   H200      1.0  0.7112179140771906  0.0380640632954507  0.39330214389631313  1.0000
  C   C315      1.0  0.6404586238891934  0.06129060532497161  0.39040661456481335  1.0000
  C   C316      1.0  0.6389874237042412  0.0578032000739389  0.36554243568749206  1.0000
  C   C317      1.0  0.6279139778071781  0.07218700984841676  0.3528391171541828  1.0000
  C   C318      1.0  0.6194102759153116  0.08923096393244362  0.3637027948716144  1.0000
  C   C319      1.0  0.6214715693982107  0.09250005983065375  0.3883764783981791  1.0000
  C   C320      1.0  0.6320808547278796  0.07853261692488141  0.4017020817439598  1.0000
  C   C321      1.0  0.6488400293233777  0.03832982628567948  0.3514040521784833  1.0000
  C   C322      1.0  0.628911044382459  0.024113473648275582  0.34925961880139517  1.0000
  C   C323      1.0  0.6156571094190709  0.025330214765351782  0.32994339023467933  1.0000
  C   C324      1.0  0.5978188612577473  0.013426153713247997  0.3288784305118784  1.0000
  C   C325      1.0  0.5938200329734112  0.9996258661842455  0.3472766529120911  1.0000
  C   C326      1.0  0.6067313956624719  0.9982832810233889  0.3665892529959353  1.0000
  C   C327      1.0  0.6239602320954432  0.010622970814202236  0.3677013829960665  1.0000
  C   C328      1.0  0.6692359961142558  0.06394115677483879  0.32462403434498177  1.0000
  C   C329      1.0  0.676997179567599  0.07115710096648589  0.3034899358596176  1.0000
  C   C330      1.0  0.6771717742291433  0.05836958659532435  0.2827078002127942  1.0000
  C   C331      1.0  0.6684719548812454  0.038940330910586775  0.28397414073496635  1.0000
  C   C332      1.0  0.6595874802616681  0.03269770018263287  0.3052878491224724  1.0000
  C   C333      1.0  0.6589438847344382  0.0451795275696736  0.32585771852130996  1.0000
  C   C334      1.0  0.6853763076704443  0.06729727348628023  0.2569727854463  1.0000
  C   C335      1.0  0.6279994380144731  0.0996519696639198  0.24530721301425507  1.0000
  C   C336      1.0  0.6447104045407479  0.11002701699148434  0.2544110765389831  1.0000
  C   C337      1.0  0.6624907434413588  0.09998976395337428  0.25746081639252394  1.0000
  C   C338      1.0  0.6649189559411035  0.0794951063015142  0.25059572679954445  1.0000
  C   C339      1.0  0.6479268388962447  0.06913970490286923  0.241836569147614  1.0000
  C   C340      1.0  0.6294472689798454  0.07885752809236322  0.23976651966939264  1.0000
  C   C341      1.0  0.6925730569922748  0.050678960455959765  0.23777992529721703  1.0000
  C   C342      1.0  0.7054227286388123  0.0346323757169077  0.24345850099119848  1.0000
  C   C343      1.0  0.7106468261999814  0.019808747089926977  0.226968860581423  1.0000
  C   C344      1.0  0.7020380631728753  0.020401480253091957  0.20405680548899757  1.0000
  C   C345      1.0  0.6902257842067842  0.03647535557732905  0.19725521434627027  1.0000
  C   C346      1.0  0.6862529854337103  0.05223128531501539  0.21370131296158712  1.0000
  C   C347      1.0  0.7108498021704184  0.0953115886214822  0.24441642046928863  1.0000
  C   C348      1.0  0.7282286726882673  0.1065265352537881  0.2472684080063298  1.0000
  C   C349      1.0  0.7418428122372273  0.10227279308581319  0.2656194601292123  1.0000
  C   C350      1.0  0.7381471620623017  0.08528987312014724  0.27956734828746443  1.0000
  C   C351      1.0  0.720465695436038  0.07401246838758518  0.27736848766730293  1.0000
  C   C352      1.0  0.706031015959822  0.07953433321713278  0.26019850671911116  1.0000
  H   H201      1.0  0.6485347311912063  0.04971628895069827  0.4005645523637278  1.0000
  H   H202      1.0  0.625970751054336  0.07066565305962194  0.3334720898272653  1.0000
  H   H203      1.0  0.6099805865384309  0.09892279291259912  0.35298788495191646  1.0000
  H   H204      1.0  0.6333334621342598  0.08067480624501217  0.42109995117528554  1.0000
  H   H205      1.0  0.6177744155983144  0.036220020585833346  0.31491965690501156  1.0000
  H   H206      1.0  0.5875848150081123  0.014565629944257134  0.3139036817009765  1.0000
  H   H207      1.0  0.6038907997254828  0.9881051133661624  0.38153497394386476  1.0000
  H   H208      1.0  0.633032775755737  0.01007729789995946  0.38391888719047546  1.0000
  H   H209      1.0  0.669927861208026  0.07369352619531576  0.3404387769406483  1.0000
  H   H210      1.0  0.6831638339473165  0.08671212571092457  0.3036985736247319  1.0000
  H   H211      1.0  0.6684549082317478  0.028975002098235843  0.2683517077314922  1.0000
  H   H212      1.0  0.6522715318760841  0.017813381224269127  0.30601535993821893  1.0000
  H   H213      1.0  0.6431841684084296  0.12550427761635316  0.25983384419052  1.0000
  H   H214      1.0  0.6756183850046261  0.10798587515573245  0.2655196768502446  1.0000
  H   H215      1.0  0.6491727496053492  0.05290113461152526  0.23752593149620826  1.0000
  H   H216      1.0  0.6163514308182484  0.07051217456315849  0.2330102845625598  1.0000
  H   H217      1.0  0.7120214553942186  0.03403327682698766  0.2611237698513574  1.0000
  H   H218      1.0  0.7210807275113719  0.007573974659285837  0.23197253846129542  1.0000
  H   H219      1.0  0.6818658518276652  0.036211780411183316  0.1802971367977772  1.0000
  H   H220      1.0  0.6770161955453375  0.06454464967506535  0.20703760416797887  1.0000
  H   H221      1.0  0.699998770002288  0.09938860970782618  0.230472160793908  1.0000
  H   H222      1.0  0.7309082371459464  0.11943676603753803  0.235105733420882  1.0000
  H   H223      1.0  0.7486791269068819  0.08049478423448315  0.29329571323198766  1.0000
  H   H224      1.0  0.7172745313214939  0.061247225665425516  0.2883210632150876  1.0000
  C   C353      1.0  0.09418909259643456  0.08040647097217793  0.089381144271555  1.0000
  C   C354      1.0  0.11417961464508143  0.07789122620789597  0.08318296983036708  1.0000
  C   C355      1.0  0.1250993393145497  0.061494033685001684  0.09165221170086042  1.0000
  C   C356      1.0  0.1163187874588237  0.046413395515561666  0.1052724478558113  1.0000
  C   C357      1.0  0.0966847416061478  0.05026446641098741  0.1132161039823601  1.0000
  C   C358      1.0  0.08530218062471659  0.06638367252974102  0.10443753394706681  1.0000
  H   H225      1.0  0.12102477264191472  0.08814078417044828  0.07051648039820407  1.0000
  H   H226      1.0  0.14095647318121474  0.06001530372650474  0.08606688801667792  1.0000
  H   H227      1.0  0.08967539565964404  0.039373915350456215  0.12533922810450795  1.0000
  H   H228      1.0  0.06959820049487385  0.06777484549661363  0.11005769106681625  1.0000
  C   C359      1.0  0.11777710146789029  0.9916398776479743  0.13335454676776992  1.0000
  C   C360      1.0  0.11379586277891576  0.006762082106350588  0.1164790172046047  1.0000
  C   C361      1.0  0.09723605318075226  0.0036472513590800645  0.10114486716527547  1.0000
  C   C362      1.0  0.08569565472557601  0.9859930404007347  0.10169911792390528  1.0000
  C   C363      1.0  0.09110992402595304  0.9709668720408388  0.11718820418184986  1.0000
  C   C364      1.0  0.1063323560389022  0.9736542374012095  0.13373989164872893  1.0000
  C   C365      1.0  0.1286834953774424  0.025952593678821835  0.1123657690214115  1.0000
  C   C366      1.0  0.14030652288722795  0.03413754874227507  0.13599209096710227  1.0000
  C   C367      1.0  0.15981402422761315  0.04180648484749186  0.13514973866847108  1.0000
  C   C368      1.0  0.16801908248564734  0.053351101863337684  0.15384549666415118  1.0000
  C   C369      1.0  0.15645278776705726  0.05761445501299815  0.1740508849585412  1.0000
  C   C370      1.0  0.1371083219484426  0.04922477391160345  0.1760423777825934  1.0000
  C   C371      1.0  0.12922283315834382  0.037318980999280986  0.15756759439379092  1.0000
  C   C372      1.0  0.1381527448249875  0.017802702388447868  0.06730364023958692  1.0000
  C   C373      1.0  0.14687015927182728  0.005744505615774622  0.04985626177586484  1.0000
  C   C374      1.0  0.16100643615236057  0.9906690391256173  0.055518509296924284  1.0000
  C   C375      1.0  0.16576836883843274  0.9884321063462334  0.07995670428512516  1.0000
  C   C376      1.0  0.15723274248122773  0.0011156980507864899  0.09742893785651739  1.0000
  C   C377      1.0  0.14273867208338975  0.015791024825808762  0.09166853987378241  1.0000
  C   C378      1.0  0.1721535767856099  0.9775317204743342  0.03431692103014924  1.0000
  C   C379      1.0  0.12423682786765837  0.9315106941780658  0.019216263863604473  1.0000
  C   C380      1.0  0.12316629407814274  0.9510981143302122  0.00952245027217602  1.0000
  C   C381      1.0  0.1383868499393522  0.9654492994966501  0.013900826735408123  1.0000
  C   C382      1.0  0.15457548708368052  0.9610506571483731  0.02869349827581541  1.0000
  C   C383      1.0  0.1544192734999689  0.9421266119723144  0.039937803846472976  1.0000
  C   C384      1.0  0.1392730690682236  0.9278960318416597  0.03548420396992804  1.0000
  C   C385      1.0  0.19435918250936404  0.9678185437796607  0.03988809363113269  1.0000
  C   C386      1.0  0.20864483578852822  0.9787634595551096  0.05340437375181356  1.0000
  C   C387      1.0  0.22838632269759945  0.9717896117811384  0.05618215881413144  1.0000
  C   C388      1.0  0.2350316935549454  0.9542677495791518  0.044096408065560595  1.0000
  C   C389      1.0  0.22109692342192133  0.9432775566857398  0.0304193861536699  1.0000
  C   C390      1.0  0.2012348332437253  0.9502567615376224  0.028048354021253177  1.0000
  C   C391      1.0  0.17910324496399557  0.9830237723506258  0.48818515674600493  1.0000
  C   C392      1.0  0.18727052467973812  0.9941906933777979  0.46973069286128316  1.0000
  C   C393      1.0  0.19417019928460766  0.013909117178820379  0.4741719558960648  1.0000
  C   C394      1.0  0.19437149793096983  0.022048256278037432  0.49690258684491256  1.0000
  C   C395      1.0  0.1869105155855822  0.010600148182135451  0.015836313926337907  1.0000
  C   C396      1.0  0.17854265870144717  0.9911311161747852  0.011801440973170263  1.0000
  H   H229      1.0  0.13060450822174782  0.9922458969085187  0.14532092042986666  1.0000
  H   H230      1.0  0.0934364311595643  0.014249236920855972  0.08722800253557507  1.0000
  H   H231      1.0  0.07305515337139129  0.9844532800840136  0.08995027180995818  1.0000
  H   H232      1.0  0.109975524040389  0.9618846315740115  0.1464383117301616  1.0000
  H   H233      1.0  0.16812823151046757  0.04070786071844319  0.11835131436632639  1.0000
  H   H234      1.0  0.18287877324591253  0.060147387042162645  0.15179413387271834  1.0000
  H   H235      1.0  0.12730871183365478  0.052843764660118274  0.19118839098503257  1.0000
  H   H236      1.0  0.1139283004703131  0.031202794935949005  0.1595033900057648  1.0000
  H   H237      1.0  0.12628279768502837  0.028228032546188782  0.06228345276264888  1.0000
  H   H238      1.0  0.1424589441603527  0.007685035161483964  0.031516820798171294  1.0000
  H   H239      1.0  0.17666118518169496  0.9764521699257356  0.08600611092857939  1.0000
  H   H240      1.0  0.16039994406262237  0.9977455010522152  0.11665645001702368  1.0000
  H   H241      1.0  0.11108322608441555  0.9548050335195716  0.49745048775851713  1.0000
  H   H242      1.0  0.1372511476359484  0.9801792541927365  0.00581414077744824  1.0000
  H   H243      1.0  0.16594767452249878  0.9388548749346971  0.05251575829657007  1.0000
  H   H244      1.0  0.14012329092506984  0.9132437928507166  0.04501078574919211  1.0000
  H   H245      1.0  0.203908671037203  0.9930809352558398  0.06113884784081729  1.0000
  H   H246      1.0  0.23944063952239703  0.9816550530961428  0.06486402978089782  1.0000
  H   H247      1.0  0.22572788859584617  0.9297394265532606  0.02025727559945321  1.0000
  H   H248      1.0  0.19088675381539777  0.9421534390592261  0.015641174117505752  1.0000
  H   H249      1.0  0.1744436934217801  0.9675287349060674  0.4839289463376725  1.0000
  H   H250      1.0  0.18893551208595807  0.986413821610815  0.45260969643185733  1.0000
  H   H251      1.0  0.20021883573847296  0.03710311894560216  0.0007886920003464803  1.0000
  H   H252      1.0  0.18753740172945635  0.016657499885499756  0.03398908760270437  1.0000
  C   C397      1.0  0.11191863635413044  0.05497307174087745  0.33049673387259126  1.0000
  C   C398      1.0  0.13211812146007934  0.05796994595559971  0.33610455415057744  1.0000
  C   C399      1.0  0.14326317548937875  0.04182271826468939  0.3447802566964622  1.0000
  C   C400      1.0  0.13501164725254705  0.022469048117309938  0.34804044855655314  1.0000
  C   C401      1.0  0.11435308022661363  0.02016005444392073  0.3427791483928003  1.0000
  C   C402      1.0  0.10270568965935577  0.036053472346816495  0.3348690557328134  1.0000
  H   H253      1.0  0.13972244741705467  0.07222025810310508  0.3321549505448913  1.0000
  H   H254      1.0  0.159395675688583  0.044636834827486455  0.348203730285773  1.0000
  H   H255      1.0  0.10691500519416763  0.004992681967709855  0.34455891924129745  1.0000
  H   H256      1.0  0.08658589831039182  0.0342834679599174  0.3309031239542053  1.0000
  C   C403      1.0  0.12234877293752029  0.9870511145299229  0.3842527076146584  1.0000
  C   C404      1.0  0.13766084688806374  0.9851496126217962  0.3670663984935446  1.0000
  C   C405      1.0  0.14411077604534445  0.9653901047786198  0.3616908011193379  1.0000
  C   C406      1.0  0.13371474363156363  0.9484236768156336  0.3702431352475898  1.0000
  C   C407      1.0  0.11687356340480871  0.9506686871630489  0.38457382834879095  1.0000
  C   C408      1.0  0.11169749573381405  0.9702443171844942  0.39237325228119546  1.0000
  C   C409      1.0  0.1494670561386601  0.0038114506311879713  0.35460981679550097  1.0000
  C   C410      1.0  0.16549318418985792  0.008034349353519613  0.3752957976462282  1.0000
  C   C411      1.0  0.18296403114704443  0.9965794658864041  0.3760686644978692  1.0000
  C   C412      1.0  0.1972617635902199  0.9998266277759655  0.39355976618019345  1.0000
  C   C413      1.0  0.19352848337282152  0.013778708844381492  0.41178926412687894  1.0000
  C   C414      1.0  0.1751241818183903  0.02402310943633631  0.41216481210408473  1.0000
  C   C415      1.0  0.16170045370515462  0.0216103423670767  0.39399155564190835  1.0000
  C   C416      1.0  0.1451630660415293  0.9901067521858951  0.3109736817821969  1.0000
  C   C417      1.0  0.15081871364574603  0.9870572428972505  0.2873540725298186  1.0000
  C   C418      1.0  0.17064996544305552  0.9910484045821231  0.2796127043233589  1.0000
  C   C419      1.0  0.18383983398130596  0.0007171884201986941  0.2962202704264599  1.0000
  C   C420      1.0  0.17742050328905676  0.00472463530564881  0.31994329144067757  1.0000
  C   C421      1.0  0.15806864480972907  0.999157143910998  0.3278515698592287  1.0000
  C   C422      1.0  0.17742684577753123  0.9885722463744111  0.25186751004602403  1.0000
  C   C423      1.0  0.1326361383228669  0.9468528584889696  0.21925652023793574  1.0000
  C   C424      1.0  0.141727904172611  0.96224833920032  0.20577126364580664  1.0000
  C   C425      1.0  0.15827600378997914  0.9732582663331274  0.21439253894861807  1.0000
  C   C426      1.0  0.16466025149167393  0.9708217125077205  0.23806838968550553  1.0000
  C   C427      1.0  0.15802877990110648  0.9529985534038002  0.2492187175497899  1.0000
  C   C428      1.0  0.14171980723275948  0.9416031605216688  0.24070629673312505  1.0000
  C   C429      1.0  0.200107606133501  0.9808893723135121  0.24595308296539162  1.0000
  C   C430      1.0  0.21119607129384801  0.9690661721246573  0.2620726181222686  1.0000
  C   C431      1.0  0.23202978812171887  0.9657260159016993  0.2588051692964346  1.0000
  C   C432      1.0  0.24196940662204522  0.9743568116152257  0.2388158571570456  1.0000
  C   C433      1.0  0.2303278763603448  0.9840382232343277  0.2221720062252291  1.0000
  C   C434      1.0  0.21027374945609045  0.9871254056796621  0.2253088296676872  1.0000
  C   C435      1.0  0.1871464142565345  0.02758363893621688  0.24483369599951732  1.0000
  C   C436      1.0  0.18190334292017496  0.047251727193883694  0.2380012627523818  1.0000
  C   C437      1.0  0.16217065112975715  0.051806682501933196  0.2319054115281717  1.0000
  C   C438      1.0  0.14706437143393838  0.03690152874683798  0.2340026746279297  1.0000
  C   C439      1.0  0.15209922331722858  0.01757559330842396  0.24051217289949692  1.0000
  C   C440      1.0  0.17233414654326168  0.012221656072172528  0.24522375790820933  1.0000
  H   H257      1.0  0.11810187226248647  0.002430971135176104  0.390921859132574  1.0000
  H   H258      1.0  0.15639396370141367  0.9624664068255117  0.3489638974473635  1.0000
  H   H259      1.0  0.1385798509153047  0.9331591414302686  0.3640602004344624  1.0000
  H   H260      1.0  0.09843804850031126  0.9730735363682479  0.40389549963981397  1.0000
  H   H261      1.0  0.18631477089294468  0.9848895780417136  0.36285917260397815  1.0000
  H   H262      1.0  0.2107884160148865  0.9909997460092855  0.39349808197137703  1.0000
  H   H263      1.0  0.17138047094293068  0.035048146770991634  0.4259711894303463  1.0000
  H   H264      1.0  0.14773720203810647  0.030783409335990084  0.39512727078070464  1.0000
  H   H265      1.0  0.1294418127535061  0.9865781704103865  0.3152679912606807  1.0000
  H   H266      1.0  0.1394547002467169  0.9813120550398753  0.2751206425283755  1.0000
  H   H267      1.0  0.19889779141839226  0.0056369053562646595  0.2903711560375154  1.0000
  H   H268      1.0  0.18765458093158593  0.013518329940251168  0.3318066161892222  1.0000
  H   H269      1.0  0.13555442178620045  0.9671358514356941  0.18842167279547295  1.0000
  H   H270      1.0  0.16492312546541193  0.9853518111181848  0.20335650829478769  1.0000
  H   H271      1.0  0.16424097873206828  0.9498870569068733  0.2668241164425681  1.0000
  H   H272      1.0  0.13503158619921807  0.9298165125059484  0.2514085069627725  1.0000
  H   H273      1.0  0.20457573946678187  0.9637163152385391  0.27884346595458953  1.0000
  H   H274      1.0  0.24112988157826445  0.9584325385333882  0.2730106797385671  1.0000
  H   H275      1.0  0.23833027274670876  0.9922849451638044  0.20830757317302262  1.0000
  H   H276      1.0  0.20233864059005952  0.9967522226133578  0.21230616129747473  1.0000
  H   H277      1.0  0.2027657163537702  0.024541874793643163  0.24940558441767488  1.0000
  H   H278      1.0  0.19409003851713535  0.05838671017610741  0.23775452591711618  1.0000
  H   H279      1.0  0.13185146843490234  0.04054667844350093  0.2306064146601555  1.0000
  H   H280      1.0  0.13986590032729895  0.006543488666975158  0.24154447627645395  1.0000
  C   C441      1.0  0.9854515909640972  0.872547479185599  0.24039061872329986  1.0000
  C   C442      1.0  0.9731329506567841  0.8857763980721114  0.22766008656845396  1.0000
  C   C443      1.0  0.9823674055968239  0.8997139511685058  0.21232248947039672  1.0000
  C   C444      1.0  0.0032501890936436073  0.9016019353063146  0.2100782728143408  1.0000
  C   C445      1.0  0.014995076670183181  0.8868532759610854  0.22106169046653365  1.0000
  C   C446      1.0  0.0060154756429233736  0.8724301489554694  0.2359293990327247  1.0000
  H   H281      1.0  0.9569580801447042  0.8856145207532671  0.22906249519830943  1.0000
  H   H282      1.0  0.9730096583593475  0.9096992621631098  0.2018996724218589  1.0000
  H   H283      1.0  0.03104707302882297  0.8856947948960628  0.2180700063389377  1.0000
  H   H284      1.0  0.015489462647358508  0.8611201537023012  0.24490263717407684  1.0000
  C   C447      1.0  0.040444852866180006  0.9294813467260381  0.2213955108907166  1.0000
  C   C448      1.0  0.03368592707700724  0.9287854003550293  0.19769607501516404  1.0000
  C   C449      1.0  0.04614966210297657  0.9371130502658701  0.1798526476460119  1.0000
  C   C450      1.0  0.06552431667778374  0.9435422600247314  0.18522860786850573  1.0000
  C   C451      1.0  0.07254863736284928  0.9432416061330435  0.20839647100337572  1.0000
  C   C452      1.0  0.05994678897515705  0.9366037547770973  0.22638648908053863  1.0000
  C   C453      1.0  0.011527838144275826  0.9188716412042848  0.19143149933742667  1.0000
  C   C454      1.0  0.9982849403584808  0.9391783498835111  0.1893160938233109  1.0000
  C   C455      1.0  0.9964016980069719  0.9498941781976897  0.1677654455042924  1.0000
  C   C456      1.0  0.9837679197991107  0.9664932040571081  0.16631133099351728  1.0000
  C   C457      1.0  0.9739784145125769  0.9741321036867233  0.18675982764030138  1.0000
  C   C458      1.0  0.9779992542500588  0.9655677049112531  0.20863050814859088  1.0000
  C   C459      1.0  0.9909537281301123  0.9490092344209283  0.21000388891547397  1.0000
  C   C460      1.0  0.029720816284281158  0.8925659298192461  0.1633700827778359  1.0000
  C   C461      1.0  0.03153149485337843  0.8805896697620273  0.14317303999405048  1.0000
  C   C462      1.0  0.01625859391075414  0.8795821199630118  0.12600995316331465  1.0000
  C   C463      1.0  0.9982857241594423  0.8901905632870811  0.13106606262068105  1.0000
  C   C464      1.0  0.9962798187067924  0.9021877049107286  0.15156118527236462  1.0000
  C   C465      1.0  0.012315913982559712  0.904138950234191  0.16769668575387645  1.0000
  C   C466      1.0  0.021750439431856443  0.8715642586091961  0.09961001891060828  1.0000
  C   C467      1.0  0.0642013159396993  0.9222569397899127  0.0895152167136589  1.0000
  C   C468      1.0  0.07168626291554622  0.9028429144792343  0.09129426186558166  1.0000
  C   C469      1.0  0.05815715433813551  0.886469540833242  0.09232602097010793  1.0000
  C   C470      1.0  0.037282498197400156  0.8889800840671771  0.09123856465350332  1.0000
  C   C471      1.0  0.030094031761157266  0.9087943205838674  0.08812949910501257  1.0000
  C   C472      1.0  0.04349759724204426  0.9252270229282024  0.08750612574767966  1.0000
  C   C473      1.0  0.0022784581921198037  0.867780737119707  0.08292625466720467  1.0000
  C   C474      1.0  0.9870773435587943  0.8545450635333375  0.09069646931249319  1.0000
  C   C475      1.0  0.9714717959567628  0.8487009214641922  0.07555499171364345  1.0000
  C   C476      1.0  0.9697421135078723  0.8569473376012421  0.05294809203071569  1.0000
  C   C477      1.0  0.9839994609246481  0.8713661602921127  0.04582919006087103  1.0000
  C   C478      1.0  0.000198621868046755  0.876097743719712  0.060295406997324635  1.0000
  C   C479      1.0  0.04246345299027627  0.8416575379740477  0.0812457228252446  1.0000
  C   C480      1.0  0.05273433498457378  0.8232827871159086  0.08281721875691449  1.0000
  C   C481      1.0  0.0513411943207949  0.8113461709584341  0.10331651416390032  1.0000
  C   C482      1.0  0.038535745526926284  0.817496692633232  0.12159027960161874  1.0000
  C   C483      1.0  0.027750743074620693  0.8354183870261171  0.11991119915280729  1.0000
  C   C484      1.0  0.030879102706540394  0.8489239892479775  0.10068477553716247  1.0000
  H   H285      1.0  0.03095853370275237  0.923885283248178  0.2362087922138343  1.0000
  H   H286      1.0  0.04107991754295947  0.9382572548042567  0.1609275695328496  1.0000
  H   H287      1.0  0.07479988715830269  0.9500263454518574  0.17066133768407937  1.0000
  H   H288      1.0  0.06489974930116472  0.9365581759202581  0.2450459622475032  1.0000
  H   H289      1.0  0.0043520079939529666  0.9452312125174943  0.15160400137024893  1.0000
  H   H290      1.0  0.9799668145684917  0.9730162190353502  0.14873096863255275  1.0000
  H   H291      1.0  0.9709213700721656  0.9709750109999249  0.22548118260408598  1.0000
  H   H292      1.0  0.9938732801322304  0.942605765109218  0.2276492011198393  1.0000
  H   H293      1.0  0.042448268509712186  0.8931498488767958  0.176105694808702  1.0000
  H   H294      1.0  0.045965255714774  0.8725141153452116  0.13989651996103755  1.0000
  H   H295      1.0  0.9863770086578668  0.8909755118591499  0.11739992615740502  1.0000
  H   H296      1.0  0.9822205940365537  0.9106668792089035  0.1542346514521253  1.0000
  H   H297      1.0  0.08766250804642862  0.900375884540086  0.093695954678263  1.0000
  H   H298      1.0  0.0651177081483609  0.8717403396748216  0.09554085679430446  1.0000
  H   H299      1.0  0.01426188708115439  0.9119728094322302  0.08860192757488886  1.0000
  H   H300      1.0  0.03765266316830078  0.9408180715552424  0.08617810101669103  1.0000
  H   H301      1.0  0.9885091432072484  0.8470075431729099  0.10802428926559758  1.0000
  H   H302      1.0  0.9596236496075942  0.8385108784980752  0.08213669679435459  1.0000
  H   H303      1.0  0.9828683972271823  0.8794624693764499  0.028795458644506073  1.0000
  H   H304      1.0  0.01193706667881922  0.8862728854980969  0.0529333966750859  1.0000
  H   H305      1.0  0.04438160526530042  0.8513249273610689  0.06622906503717631  1.0000
  H   H306      1.0  0.06256997548371063  0.8181026653583443  0.0687035089314323  1.0000
  H   H307      1.0  0.03775695658243884  0.8089106882291368  0.1387774958434504  1.0000
  H   H308      1.0  0.017525370495363186  0.8389258789753675  0.13483079502406153  1.0000
  C   C485      1.0  0.9699610347172823  0.8511993321161827  0.4951173732721082  1.0000
  C   C486      1.0  0.9620828804568873  0.8677935404324616  0.48370035191676464  1.0000
  C   C487      1.0  0.9748197534111165  0.8822986855354829  0.47447493421583953  1.0000
  C   C488      1.0  0.9960243647707312  0.8801646711911694  0.4760623954721443  1.0000
  C   C489      1.0  0.0034849583905112182  0.861729473185194  0.48486509491853336  1.0000
  C   C490      1.0  0.9906598721660003  0.8477946202396711  0.4949069212655581  1.0000
  H   H309      1.0  0.9452837243929064  0.8704600386278737  0.4835697265333887  1.0000
  H   H310      1.0  0.9678660787343035  0.8960795096349096  0.4667825505281458  1.0000
  H   H311      1.0  0.019591767569014196  0.859993053201051  0.48621126206387977  1.0000
  H   H312      1.0  0.9964489761010993  0.8357123089175605  0.005644740091204201  1.0000
  C   C491      1.0  0.0337858588152916  0.8978478545876332  0.0049614473026331485  1.0000
  C   C492      1.0  0.032808043981677214  0.8997802549739997  0.48022426532581625  1.0000
  C   C493      1.0  0.049903445972125184  0.9084062045687229  0.46876188793457835  1.0000
  C   C494      1.0  0.06726310110632067  0.9134331807277166  0.48131281018728234  1.0000
  C   C495      1.0  0.06826028193633926  0.9101988682739319  0.005861311054778495  1.0000
  C   C496      1.0  0.051095653177303274  0.9031548524533054  0.017603475796856314  1.0000
  C   C497      1.0  0.011869705096844152  0.8969302504076845  0.4659534421919958  1.0000
  C   C498      1.0  0.0036803816760011543  0.92011828054066  0.46796362170283656  1.0000
  C   C499      1.0  0.007986414584364445  0.9340320365603716  0.45011692869909997  1.0000
  C   C500      1.0  0.9984129504089716  0.9525169364309553  0.44965248289154114  1.0000
  C   C501      1.0  0.9844097402708162  0.9578641724130643  0.4674429344107686  1.0000
  C   C502      1.0  0.9818349956819208  0.9453333761293261  0.4868335468763512  1.0000
  C   C503      1.0  0.9914077633706211  0.9267062466342638  0.4871492248861764  1.0000
  C   C504      1.0  0.029116085247665437  0.8727744441248771  0.43481924491262985  1.0000
  C   C505      1.0  0.031620237155923464  0.8654030687419284  0.4117439080909845  1.0000
  C   C506      1.0  0.020434670627954347  0.8721533048502891  0.3921047445487005  1.0000
  C   C507      1.0  0.005193180816741361  0.8860533883469226  0.3973297598837377  1.0000
  C   C508      1.0  0.0019048187261749838  0.8932202067670781  0.42067360443787805  1.0000
  C   C509      1.0  0.014610367531109536  0.8875486155848857  0.439817480068195  1.0000
  C   C510      1.0  0.02619348888662768  0.8649801611374787  0.36523764312628154  1.0000
  C   C511      1.0  0.07791237509252266  0.907990857320551  0.3638424914621692  1.0000
  C   C512      1.0  0.08090051123975135  0.8880696153093988  0.3708817482329832  1.0000
  C   C513      1.0  0.06510896820628546  0.8738743810879809  0.36946301143020577  1.0000
  C   C514      1.0  0.04580790494559045  0.879578029961944  0.36199922216341995  1.0000
  C   C515      1.0  0.04312378820256292  0.8997433810053798  0.3544175072033086  1.0000
  C   C516      1.0  0.05898945794224746  0.9134435049701202  0.35581265886742103  1.0000
  C   C517      1.0  0.010024116034593968  0.8664904653576501  0.34356290069305595  1.0000
  C   C518      1.0  0.9894209169337859  0.8620371308381644  0.34647838668034925  1.0000
  C   C519      1.0  0.9764421859455228  0.8632093184722412  0.3272202138395784  1.0000
  C   C520      1.0  0.9834101842017973  0.8677293604699071  0.30444059837196463  1.0000
  C   C521      1.0  0.003991028277062547  0.8717864758276448  0.3012856325151488  1.0000
  C   C522      1.0  0.01722325812745666  0.8701245795631871  0.3202281273460945  1.0000
  C   C523      1.0  0.043421733453045896  0.8314188875391261  0.34887681385844627  1.0000
  C   C524      1.0  0.04607634803924653  0.8106527778113245  0.34853029374421285  1.0000
  C   C525      1.0  0.034272966393819965  0.7983691465588941  0.3632800766170784  1.0000
  C   C526      1.0  0.019706031901747405  0.8067903149944353  0.37805163038717327  1.0000
  C   C527      1.0  0.016364132537592047  0.8277340376490707  0.37760532699397215  1.0000
  C   C528      1.0  0.02900874897647288  0.8405277613296914  0.36378262149478857  1.0000
  H   H313      1.0  0.0205368480395117  0.8932017978437047  0.01490939983438517  1.0000
  H   H314      1.0  0.048917646536305585  0.9112542148693108  0.449759523136252  1.0000
  H   H315      1.0  0.0796930113820603  0.920984913921844  0.4724375410834622  1.0000
  H   H316      1.0  0.051300737691405876  0.901725158464613  0.036972063371408605  1.0000
  H   H317      1.0  0.018949590271856782  0.9305290017285636  0.43623798171540734  1.0000
  H   H318      1.0  0.0009364467146995014  0.9633079588235421  0.4353326752389547  1.0000
  H   H319      1.0  0.9705317206622459  0.9485141805294315  0.0004730139905213537  1.0000
  H   H320      1.0  0.9881304119827622  0.9167612415514305  0.002270927253376187  1.0000
  H   H321      1.0  0.03943469254407717  0.8674489222983843  0.44852221047705215  1.0000
  H   H322      1.0  0.04285595665216692  0.8541576953967662  0.4092384406681767  1.0000
  H   H323      1.0  0.9956012420236297  0.8918951719197339  0.3829156116764909  1.0000
  H   H324      1.0  0.9903086959558944  0.9049167753010757  0.42419867554759233  1.0000
  H   H325      1.0  0.09571272116999097  0.8829741431984272  0.3764206273364099  1.0000
  H   H326      1.0  0.06808212946612002  0.8584047369073294  0.37544456544396193  1.0000
  H   H327      1.0  0.02782455970442878  0.9042692986011361  0.3495226838095828  1.0000
  H   H328      1.0  0.05586730628102541  0.9295266705186416  0.35182314195014774  1.0000
  H   H329      1.0  0.9837340956036158  0.857739389656469  0.36378262149478857  1.0000
  H   H330      1.0  0.9602581952968636  0.8614745069860341  0.330678158016169  1.0000
  H   H331      1.0  0.010223530229215516  0.8759362395492497  0.28398139770070946  1.0000
  H   H332      1.0  0.033449940844084806  0.8721576886263126  0.3164799045397796  1.0000
  H   H333      1.0  0.05268669310826103  0.8414018218310166  0.33792242406922585  1.0000
  H   H334      1.0  0.056874309171123044  0.8034376486035527  0.3363821330902513  1.0000
  H   H335      1.0  0.010703504464149916  0.7966807077360866  0.3893362121177051  1.0000
  H   H336      1.0  0.004121917605455882  0.833884386717559  0.3884925898500688  1.0000
  C   C529      1.0  0.0559003758925624  0.12420281614951943  0.08131339403079908  1.0000
  C   C530      1.0  0.06178227727788962  0.14198618332943722  0.07029006306701914  1.0000
  C   C531      1.0  0.04849889935506126  0.15155039068624507  0.054952828817249076  1.0000
  C   C532      1.0  0.029323907930564358  0.14327727476971028  0.04955001782150571  1.0000
  C   C533      1.0  0.0232343021892863  0.12594208589531103  0.062019299209599775  1.0000
  C   C534      1.0  0.03661025802018799  0.11624335423751168  0.07750022138108335  1.0000
  H   H337      1.0  0.07740452645367082  0.1479972455510172  0.07188895404436924  1.0000
  H   H338      1.0  0.054021407612871844  0.16507652257539926  0.04610985321098571  1.0000
  H   H339      1.0  0.008488046650787506  0.11989898751820696  0.06017657418328126  1.0000
  H   H340      1.0  0.03125404273933798  0.10239529384477224  0.08627879141637664  1.0000
  C   C535      1.0  0.9969297955786232  0.12197981151439408  0.013317965389336104  1.0000
  C   C536      1.0  0.9969689897720528  0.14324900875384464  0.01868269545734251  1.0000
  C   C537      1.0  0.9798574814860852  0.1541216299023826  0.011717205743307145  1.0000
  C   C538      1.0  0.9631487045788201  0.14448211920926746  0.0024450944312107703  1.0000
  C   C539      1.0  0.9624203644000996  0.1235801370779399  0.00017366415361808052  1.0000
  C   C540      1.0  0.9795284564097753  0.11231386761782496  0.005643602082485266  1.0000
  C   C541      1.0  0.014409247660837251  0.15541990455070812  0.032567810861916804  1.0000
  C   C542      1.0  0.02649786820958209  0.16499321183794888  0.009822484557439266  1.0000
  C   C543      1.0  0.022577149941880283  0.1847635171639628  0.0013746919841024496  1.0000
  C   C544      1.0  0.03627078763998524  0.1944141219879529  0.4856688038745825  1.0000
  C   C545      1.0  0.05371730415100826  0.18465989749931536  0.4782920981967139  1.0000
  C   C546      1.0  0.05715047579532541  0.16442308035843323  0.4852460856200465  1.0000
  C   C547      1.0  0.04291493603508884  0.15425722207402143  0.49903613477338604  1.0000
  C   C548      1.0  0.9922326778174461  0.16126195706945712  0.06990489961020371  1.0000
  C   C549      1.0  0.9861554550665984  0.17070379095928698  0.09078046869096967  1.0000
  C   C550      1.0  0.9931022097403567  0.19040143791384484  0.09637468215818748  1.0000
  C   C551      1.0  0.007274224443286625  0.19952520465258905  0.08092804914984007  1.0000
  C   C552      1.0  0.013235691258656201  0.18926902828256534  0.060251139506291684  1.0000
  C   C553      1.0  0.0057371703974777866  0.17005392989485113  0.0539608016001663  1.0000
  C   C554      1.0  0.9853906004229666  0.20101711171786812  0.12047179975646233  1.0000
  C   C555      1.0  0.92583381290702  0.1756146396230337  0.1410951892776553  1.0000
  C   C556      1.0  0.9398384426608262  0.18017022902999225  0.1591690253091511  1.0000
  C   C557      1.0  0.9583448176178787  0.1896104557140279  0.15335492577991713  1.0000
  C   C558      1.0  0.9630838898109304  0.19387519493858046  0.12886339209350442  1.0000
  C   C559      1.0  0.9470813594545473  0.19207632804779476  0.11212574487945824  1.0000
  C   C560      1.0  0.9292918707906684  0.1824962131136518  0.11808589084427222  1.0000
  C   C561      1.0  0.9820311303626973  0.22530052911290735  0.1190445360189367  1.0000
  C   C562      1.0  0.9777628040118993  0.23489139146322438  0.09763213289732439  1.0000
  C   C563      1.0  0.9789973264781593  0.25601113270796066  0.0954526846605257  1.0000
  C   C564      1.0  0.9833753055225446  0.2680039040838381  0.11561598255360568  1.0000
  C   C565      1.0  0.9855170619311745  0.25897407019382884  0.1381947614942789  1.0000
  C   C566      1.0  0.9844714561575159  0.23801484753897564  0.1395708636233156  1.0000
  C   C567      1.0  0.02121117640379419  0.20554075866732216  0.14080182643749017  1.0000
  C   C568      1.0  0.03755766072856758  0.19804955339052643  0.153570639086631  1.0000
  C   C569      1.0  0.03722207126123812  0.17821192340770858  0.16192576517081397  1.0000
  C   C570      1.0  0.020799229508342766  0.16602505127794231  0.1580398414395236  1.0000
  C   C571      1.0  0.00449858260377023  0.17334760993005696  0.14510611424387068  1.0000
  C   C572      1.0  0.003936515643289784  0.1934964987255844  0.13697667979429834  1.0000
  H   H341      1.0  0.01062008164275974  0.11338007978549232  0.01664722542088707  1.0000
  H   H342      1.0  0.9794897188265211  0.1704667997180668  0.014033066793661895  1.0000
  H   H343      1.0  0.9497984768382826  0.15347963396116857  0.49860797379454275  1.0000
  H   H344      1.0  0.9793893125278983  0.0958413594661862  0.004005342065978801  1.0000
  H   H345      1.0  0.009291239850518496  0.19328745952157994  0.007226704195958513  1.0000
  H   H346      1.0  0.034208706848102184  0.21011362964576558  0.48016983808274294  1.0000
  H   H347      1.0  0.0703158004447899  0.15514463709687368  0.4790704077726622  1.0000
  H   H348      1.0  0.04653437648545737  0.1388898044230791  0.004598599015477768  1.0000
  H   H349      1.0  0.9862013476138584  0.14554048172205522  0.06745095664417199  1.0000
  H   H350      1.0  0.9751404069740472  0.1634938265590594  0.10243207146395912  1.0000
  H   H351      1.0  0.013419991288956318  0.214595259269041  0.08486749300348587  1.0000
  H   H352      1.0  0.025111044772025352  0.19543591350542144  0.04886931443480224  1.0000
  H   H353      1.0  0.9373995880749701  0.17473658909025697  0.17741993130477873  1.0000
  H   H354      1.0  0.9695400990891871  0.19280742445405752  0.16716837864777825  1.0000
  H   H355      1.0  0.9493076906027955  0.19538506374230874  0.09322806181197617  1.0000
  H   H356      1.0  0.9187957254534778  0.17716288243141173  0.10404311785892893  1.0000
  H   H357      1.0  0.9736307224825084  0.22518885075858333  0.08189068565566325  1.0000
  H   H358      1.0  0.9764040852314466  0.26245919815315416  0.07791640836645057  1.0000
  H   H359      1.0  0.9888588549620395  0.26781618904955873  0.1547324793021025  1.0000
  H   H360      1.0  0.9866432508176222  0.2313303432725364  0.15706160245735276  1.0000
  H   H361      1.0  0.022686478297089502  0.22085581113782307  0.13338176038930658  1.0000
  H   H362      1.0  0.051695915347289956  0.2072840019172485  0.15565683531363078  1.0000
  H   H363      1.0  0.020418582274326715  0.15022874384198082  0.16310592922478678  1.0000
  H   H364      1.0  0.9916525150595186  0.16249466707247717  0.1410309651308288  1.0000
  C   C573      1.0  0.07368309361634483  0.10150162283247638  0.32406887646563404  1.0000
  C   C574      1.0  0.0781669535274359  0.12112375526381522  0.31762106240288324  1.0000
  C   C575      1.0  0.06340167757487401  0.1330655205401754  0.30681725465283227  1.0000
  C   C576      1.0  0.04409675502194396  0.12511739235325858  0.3013600164140156  1.0000
  C   C577      1.0  0.03964374153691498  0.10495432722531985  0.30891633199402607  1.0000
  C   C578      1.0  0.054157292835453355  0.0936399297983604  0.32013015830856256  1.0000
  H   H365      1.0  0.09326484963533582  0.12871319128087877  0.3207959849154926  1.0000
  H   H366      1.0  0.0679307148646496  0.14879555505055916  0.30162308142220323  1.0000
  H   H367      1.0  0.024196738715718903  0.09838586924923168  0.30770260447349135  1.0000
  H   H368      1.0  0.05035516843689161  0.07887682661063221  0.32774634385595364  1.0000
  C   C579      1.0  0.003933562359745846  0.11151189379034585  0.2691590451704129  1.0000
  C   C580      1.0  0.005879644484463764  0.1310102606112416  0.2793314969008135  1.0000
  C   C581      1.0  0.9879802978603917  0.14258270760842842  0.28141424606908527  1.0000
  C   C582      1.0  0.9694354252437729  0.1338523543562475  0.2780325000327973  1.0000
  C   C583      1.0  0.9675617701324323  0.11340689632542164  0.27204731753616956  1.0000
  C   C584      1.0  0.9847497944428575  0.10244572902577832  0.2659696087263172  1.0000
  C   C585      1.0  0.02718082415674251  0.1404275440054561  0.28926084027882  1.0000
  C   C586      1.0  0.03562101621712425  0.1516228595596424  0.2653654663282035  1.0000
  C   C587      1.0  0.02761204254713725  0.16993466716966266  0.2562761167349617  1.0000
  C   C588      1.0  0.03484985879852197  0.1781381070241543  0.23485355386130904  1.0000
  C   C589      1.0  0.05061098376606189  0.1684565434497203  0.2226945077587328  1.0000
  C   C590      1.0  0.05721901057567242  0.14987318783475695  0.2302780369602799  1.0000
  C   C591      1.0  0.05034931112222367  0.14160337744756157  0.2514012499970294  1.0000
  C   C592      1.0  0.01228844335664281  0.14519644373137167  0.33130225707007616  1.0000
  C   C593      1.0  0.006815178686645718  0.15609998966813615  0.3517777859142534  1.0000
  C   C594      1.0  0.009564394406733623  0.17708862040142395  0.35413267129789167  1.0000
  C   C595      1.0  0.020279044475530448  0.18631255471090333  0.33505592260069844  1.0000
  C   C596      1.0  0.027114599839884058  0.17524992068766873  0.31529339064078155  1.0000
  C   C597      1.0  0.0220078215657072  0.15461068163486238  0.3121855950612959  1.0000
  C   C598      1.0  0.0037152630419268196  0.18838080768312365  0.37962094922912015  1.0000
  C   C599      1.0  0.9541203009577526  0.14813731478159772  0.40351269469686507  1.0000
  C   C600      1.0  0.9691043029353484  0.1538292231980412  0.4197120564769163  1.0000
  C   C601      1.0  0.9833527328171009  0.16869427000856335  0.4137268739802886  1.0000
  C   C602      1.0  0.9841447918857112  0.17653174946883532  0.3903830294261483  1.0000
  C   C603      1.0  0.9672552327966711  0.1725637894135159  0.37572940134937893  1.0000
  C   C604      1.0  0.9527394478968377  0.15781676473264636  0.38179259622774503  1.0000
  C   C605      1.0  0.9952326004932484  0.2110965536943084  0.3800636241394497  1.0000
  C   C606      1.0  0.9873210964175049  0.21995416817079108  0.3595064544306626  1.0000
  C   C607      1.0  0.981173153933808  0.24011965734277468  0.3597767764045934  1.0000
  C   C608      1.0  0.9808911441285069  0.2511398663510343  0.3821699584463866  1.0000
  C   C609      1.0  0.9873494000475624  0.2418127241978193  0.4028904098843937  1.0000
  C   C610      1.0  0.9944922123682317  0.22199607856542994  0.40172022415831765  1.0000
  C   C611      1.0  0.03916461800239945  0.2020092924343768  0.39395164233032126  1.0000
  C   C612      1.0  0.057025523253121484  0.2016959819091659  0.4073806574379413  1.0000
  C   C613      1.0  0.061291892155815174  0.1845182241550952  0.4206028490218827  1.0000
  C   C614      1.0  0.04884211002798089  0.16767802502203652  0.41884303482917923  1.0000
  C   C615      1.0  0.031171691453860992  0.1682321329256402  0.40567345624687523  1.0000
  C   C616      1.0  0.025175833279444386  0.18590459165744144  0.393848230568482  1.0000
  H   H369      1.0  0.017785041015546767  0.10330465780615332  0.2643694477799621  1.0000
  H   H370      1.0  0.9878614591971491  0.15807667158594066  0.2885968279133257  1.0000
  H   H371      1.0  0.9560978036783075  0.14282673412653002  0.283627620620733  1.0000
  H   H372      1.0  0.9830577791945404  0.08668422054932627  0.2597503890844743  1.0000
  H   H373      1.0  0.01590982676942769  0.1780365676475417  0.26576641368551024  1.0000
  H   H374      1.0  0.029310559272282342  0.19261079304217119  0.2280791763401184  1.0000
  H   H375      1.0  0.06909760969046745  0.1416102682307421  0.220441219895498  1.0000
  H   H376      1.0  0.05683393753344257  0.12746420932607844  0.25661537988345196  1.0000
  H   H377      1.0  0.008588251793525625  0.1291293180210548  0.3301193716539497  1.0000
  H   H378      1.0  0.000297343969189123  0.14675366047235047  0.3661375068784269  1.0000
  H   H379      1.0  0.02431415060822965  0.20218046874312642  0.3368429504149386  1.0000
  H   H380      1.0  0.03531757484368527  0.18323790156518385  0.3016212671807675  1.0000
  H   H381      1.0  0.9698539903452746  0.1458628166110761  0.4365554739666683  1.0000
  H   H382      1.0  0.9948959102132565  0.1714107572046949  0.42722301602103235  1.0000
  H   H383      1.0  0.9671519993642285  0.1796032849387527  0.35792262165722943  1.0000
  H   H384      1.0  0.9408593698556024  0.15370947252493586  0.36870828699292263  1.0000
  H   H385      1.0  0.9878680684739009  0.2113641885912668  0.34221673354770954  1.0000
  H   H386      1.0  0.9762914517450826  0.24701381289496435  0.3434576746897809  1.0000
  H   H387      1.0  0.9878297971130189  0.2500283397015435  0.419844496101728  1.0000
  H   H388      1.0  0.9992915302212062  0.21456723730582644  0.4180538398046163  1.0000
  H   H389      1.0  0.03526733478662557  0.2158116167974912  0.38449763020848826  1.0000
  H   H390      1.0  0.06609587482745004  0.2154065720430762  0.40933640970570867  1.0000
  H   H391      1.0  0.05130546116208139  0.15410539818896912  0.4292585949119739  1.0000
  H   H392      1.0  0.021561468494282705  0.15467740225759855  0.4057206265242055  1.0000
  C   C617      1.0  0.8323707588285498  0.02911749995212641  0.12212965358047519  1.0000
  C   C618      1.0  0.846024040551708  0.01667907211317907  0.13367330898803592  1.0000
  C   C619      1.0  0.8631558243423354  0.025004770298528583  0.1447621340676474  1.0000
  C   C620      1.0  0.8670506675397714  0.04627958195797545  0.14368302326164736  1.0000
  C   C621      1.0  0.8533765649414066  0.05842750985698466  0.1316558725114521  1.0000
  C   C622      1.0  0.8360009020288359  0.05001084925722552  0.12149847898496843  1.0000
  H   H393      1.0  0.8443218759928911  0.00015896903666589744  0.13478344332258776  1.0000
  H   H394      1.0  0.8729803529530321  0.01476602822928187  0.15516590158110954  1.0000
  H   H395      1.0  0.8551403169063385  0.07543256455113975  0.1317712582667675  1.0000
  H   H396      1.0  0.8254654343951515  0.060009368910033466  0.11210197831664956  1.0000
  C   C623      1.0  0.8974794937857794  0.0837231446263466  0.13091602485394233  1.0000
  C   C624      1.0  0.8924773681261002  0.07937229874706139  0.1550258421422676  1.0000
  C   C625      1.0  0.8979545420727674  0.09359784014541943  0.17247430915085116  1.0000
  C   C626      1.0  0.9071512448330764  0.11182829846198165  0.16716819722363466  1.0000
  C   C627      1.0  0.9114837989300962  0.1166052435410996  0.14322583441983158  1.0000
  C   C628      1.0  0.907091244242053  0.10219043226538159  0.1252169482317366  1.0000
  C   C629      1.0  0.8826277951340824  0.057557243370627634  0.16179513978743806  1.0000
  C   C630      1.0  0.9031872865125883  0.044334100097713075  0.1655192331826571  1.0000
  C   C631      1.0  0.9138723295833658  0.044011356527484155  0.18732587096826375  1.0000
  C   C632      1.0  0.9314831558941155  0.033329993624836685  0.18949026100114547  1.0000
  C   C633      1.0  0.9395412199283601  0.021831767514797075  0.17034928815712574  1.0000
  C   C634      1.0  0.9295039265755778  0.023026147042620307  0.14834036245143  1.0000
  C   C635      1.0  0.9120063884474514  0.0341287961473625  0.1457556126778788  1.0000
  C   C636      1.0  0.8559597949313682  0.07495953924894402  0.19032844054447437  1.0000
  C   C637      1.0  0.846305638049539  0.07713417351818888  0.21263453899735035  1.0000
  C   C638      1.0  0.8496589267908992  0.0625093835445465  0.23053021651985287  1.0000
  C   C639      1.0  0.8591429335960338  0.04427459954842032  0.22334763467561247  1.0000
  C   C640      1.0  0.8671241831480967  0.0419003138667828  0.20055894800081986  1.0000
  C   C641      1.0  0.8683843815208376  0.05844325693702793  0.18536649021762477  1.0000
  C   C642      1.0  0.8494306160502643  0.06904197820014941  0.2587017575345953  1.0000
  C   C643      1.0  0.9111070802900648  0.09577919234497667  0.2552256709436469  1.0000
  C   C644      1.0  0.8944859813471667  0.10830169006792044  0.25379060596794745  1.0000
  C   C645      1.0  0.8746218286905997  0.10058584118890747  0.2554832932275272  1.0000
  C   C646      1.0  0.8713386728949234  0.07953515884913265  0.25967600518560746  1.0000
  C   C647      1.0  0.8888131551286971  0.06719213301046865  0.2610094726409034  1.0000
  C   C648      1.0  0.9080606189290273  0.07532508531484533  0.25971410425575875  1.0000
  C   C649      1.0  0.8470105054185566  0.05081740771966642  0.27739932977171117  1.0000
  C   C650      1.0  0.8340551902386846  0.034263866268130695  0.2727566859375583  1.0000
  C   C651      1.0  0.8319192567542921  0.01801056570794541  0.28912477217113675  1.0000
  C   C652      1.0  0.8436446597143826  0.01813856061994337  0.3099395641638042  1.0000
  C   C653      1.0  0.8565703764534841  0.03469043537998197  0.3142157312279302  1.0000
  C   C654      1.0  0.8569699465871695  0.05116101543784677  0.299275453004308  1.0000
  C   C655      1.0  0.8309223150782008  0.0967992578209326  0.2837437320726227  1.0000
  C   C656      1.0  0.8134014866414645  0.10692039983728471  0.29085555850086786  1.0000
  C   C657      1.0  0.7946824116275556  0.10128018864724675  0.28087541636265956  1.0000
  C   C658      1.0  0.7940155849568339  0.08610524859109907  0.2638342465564079  1.0000
  C   C659      1.0  0.8112686140898391  0.07688820113426532  0.2553798814656879  1.0000
  C   C660      1.0  0.830137121710023  0.08162994299202513  0.2657954415484826  1.0000
  H   H397      1.0  0.8932269375182562  0.0728261215430511  0.11650677509857209  1.0000
  H   H398      1.0  0.8958301666701187  0.09022466171786792  0.19142968509599093  1.0000
  H   H399      1.0  0.9110110625610981  0.12143965299553748  0.1830551466284451  1.0000
  H   H400      1.0  0.9111697989519111  0.10545097308315174  0.10715417907299901  1.0000
  H   H401      1.0  0.9080827138219628  0.05198495046017033  0.20375201292778705  1.0000
  H   H402      1.0  0.9399516430816125  0.03382506877455661  0.20662214287918595  1.0000
  H   H403      1.0  0.9363178052621502  0.014799665216054605  0.13299677835663473  1.0000
  H   H404      1.0  0.9045234226691797  0.034819408610096754  0.12794629304771923  1.0000
  H   H405      1.0  0.8543498869071238  0.08780127316263521  0.17813800806505922  1.0000
  H   H406      1.0  0.8386755503742888  0.09146453725808287  0.21745497849220935  1.0000
  H   H407      1.0  0.8620711239711119  0.03183836322982568  0.23579151668360565  1.0000
  H   H408      1.0  0.8748491925761972  0.027369344145732902  0.19627189548807925  1.0000
  H   H409      1.0  0.8975174921880649  0.1245292710764349  0.2514266493771302  1.0000
  H   H410      1.0  0.8613518497957784  0.11030272275276093  0.2528852994914948  1.0000
  H   H411      1.0  0.8873727367183321  0.05050630951166063  0.2638669029022519  1.0000
  H   H412      1.0  0.9203730835051097  0.06475014873091192  0.2616027295904024  1.0000
  H   H413      1.0  0.825454351185392  0.03342465199693051  0.2564956399486907  1.0000
  H   H414      1.0  0.821415622772836  0.005249091026093408  0.2860913604905179  1.0000
  H   H415      1.0  0.8658490357721627  0.0345407118968909  0.3306908577062194  1.0000
  H   H416      1.0  0.8661008580173388  0.06443493503388892  0.30487238783367954  1.0000
  H   H417      1.0  0.8450261079401173  0.10007844959328675  0.2925645739333696  1.0000
  H   H418      1.0  0.8144677622838491  0.1184240525687059  0.3053876324014401  1.0000
  H   H419      1.0  0.7798407237489603  0.08116454403564888  0.25545789384742634  1.0000
  H   H420      1.0  0.8096898921887102  0.06507500151064174  0.24188736790781576  1.0000
  C   C661      1.0  0.8459871155228931  0.01611322958690213  0.37103595875502426  1.0000
  C   C662      1.0  0.8563703030416318  0.002090880884298028  0.38506730201932216  1.0000
  C   C663      1.0  0.8712376320860045  0.008596489232341237  0.40092558640944737  1.0000
  C   C664      1.0  0.877594424283591  0.028940356831115437  0.40196514675214745  1.0000
  C   C665      1.0  0.8667189240069748  0.04295416929180484  0.38812248459717036  1.0000
  C   C666      1.0  0.8504938999040226  0.03668577476598933  0.3741709679560466  1.0000
  H   H421      1.0  0.8519748631019776  0.9857974344521887  0.3831968190990363  1.0000
  H   H422      1.0  0.8782230406461691  0.9974415045117244  0.41226096690018094  1.0000
  H   H423      1.0  0.8692892303420305  0.05953624285420337  0.38945413781103055  1.0000
  H   H424      1.0  0.8418391660993285  0.04861315009618059  0.36484939545902534  1.0000
  C   C667      1.0  0.9129652735628675  0.06083442172548218  0.3897807012694704  1.0000
  C   C668      1.0  0.9076471665400861  0.05613450426673148  0.41361439101127045  1.0000
  C   C669      1.0  0.9168023054280211  0.06804629554462242  0.43212328213906553  1.0000
  C   C670      1.0  0.9287140781915147  0.08508445706384808  0.42701619249735373  1.0000
  C   C671      1.0  0.9327026227624524  0.0902217860131959  0.4033076854146223  1.0000
  C   C672      1.0  0.9252477724725263  0.07768011696982104  0.38466635466201554  1.0000
  C   C673      1.0  0.8933175273041514  0.03698311555120014  0.421161635384102  1.0000
  C   C674      1.0  0.9102975012079448  0.020548927561586963  0.42877056396575  1.0000
  C   C675      1.0  0.9181855386497082  0.02033182003030724  0.4519220989276979  1.0000
  C   C676      1.0  0.9331093341898465  0.006485899804063187  0.45829008636727453  1.0000
  C   C677      1.0  0.9397442006046015  0.9922338926631183  0.4417750465773982  1.0000
  C   C678      1.0  0.9322334046835856  0.9922069241624302  0.4183386757100332  1.0000
  C   C679      1.0  0.9186533517400329  0.007139077183099968  0.41162961088053057  1.0000
  C   C680      1.0  0.8700743414746046  0.062438931879254596  0.444182544962674  1.0000
  C   C681      1.0  0.8584628225229662  0.06846930766021421  0.46365661253430235  1.0000
  C   C682      1.0  0.8548212372549623  0.055151946860981044  0.48273336123149563  1.0000
  C   C683      1.0  0.8607219818886565  0.03500410459960229  0.4795076399586844  1.0000
  C   C684      1.0  0.8706939913544792  0.02872438718485434  0.45898494083717706  1.0000
  C   C685      1.0  0.8776722868261967  0.04275791599837953  0.4422503778335717  1.0000
  C   C686      1.0  0.8496473751971716  0.06505465763401665  0.008583956356477507  1.0000
  C   C687      1.0  0.9081905976017257  0.09853068127437621  0.012701939709818085  1.0000
  C   C688      1.0  0.890653921985178  0.10941347959701808  0.009271281724421555  1.0000
  C   C689      1.0  0.8718473270400845  0.09975739310965068  0.010212092905772338  1.0000
  C   C690      1.0  0.870031777839317  0.0785967434101053  0.01404888697898187  1.0000
  C   C691      1.0  0.8884735607069895  0.06803592489603529  0.017360585153434513  1.0000
  C   C692      1.0  0.9069585786718998  0.07751938434275013  0.016444193661809284  1.0000
  C   C693      1.0  0.8431463720217639  0.048528944089899835  0.02829146237364727  1.0000
  C   C694      1.0  0.8244691699930508  0.038007413451852455  0.027130892127180842  1.0000
  C   C695      1.0  0.8180970030243017  0.024390871330496895  0.044640136223862904  1.0000
  C   C696      1.0  0.8305567489046976  0.02057247393794129  0.06398938398470982  1.0000
  C   C697      1.0  0.8494233073077025  0.030068075205156433  0.06520039014309084  1.0000
  C   C698      1.0  0.8549739379074146  0.044245305177057256  0.04834010020798615  1.0000
  C   C699      1.0  0.8250353557407365  0.09420613628642015  0.02394490274181317  1.0000
  C   C700      1.0  0.8082568259040261  0.10656395778944175  0.02247083157524451  1.0000
  C   C701      1.0  0.7946989802348396  0.10365509046824997  0.003401199667865118  1.0000
  C   C702      1.0  0.7984694031990328  0.08856918101927504  0.48619130540808625  1.0000
  C   C703      1.0  0.8149829590219361  0.07619577329176488  0.4886822588994078  1.0000
  C   C704      1.0  0.8292915618893991  0.07924912098918842  0.007018211570159041  1.0000
  H   H425      1.0  0.9073175355173103  0.05211597951293471  0.37486219394307757  1.0000
  H   H426      1.0  0.9141809337508406  0.06579702140937531  0.4512109162848734  1.0000
  H   H427      1.0  0.9354780031461017  0.09391932049516462  0.4418911580292879  1.0000
  H   H428      1.0  0.9298293708805663  0.08123164653073034  0.36612117870550487  1.0000
  H   H429      1.0  0.9133923352587134  0.03091469351459909  0.46618929357864686  1.0000
  H   H430      1.0  0.9376944507696748  0.006546724500142256  0.47699672981156926  1.0000
  H   H431      1.0  0.9367686027477505  0.9810276822351047  0.40439078755178104  1.0000
  H   H432      1.0  0.9131329706376025  0.006322068022990369  0.3932821872405196  1.0000
  H   H433      1.0  0.8733680484855189  0.07448307674288662  0.43127421714712194  1.0000
  H   H434      1.0  0.8538541750030393  0.08489934123688642  0.4649138818492957  1.0000
  H   H435      1.0  0.8583284387384459  0.023938788881119135  0.49369319374502335  1.0000
  H   H436      1.0  0.8755107511463527  0.012819657904024047  0.45817941763969217  1.0000
  H   H437      1.0  0.8914655419035952  0.12582976242996402  0.005938229928269817  1.0000
  H   H438      1.0  0.8586915411675926  0.10865991738465006  0.005785112914475809  1.0000
  H   H439      1.0  0.8884504432433454  0.05150465079778232  0.017299499644291907  1.0000
  H   H440      1.0  0.9205792289805096  0.06871461030027755  0.01785160959802751  1.0000
  H   H441      1.0  0.8144176925033122  0.03908994013361825  0.011538072507324082  1.0000
  H   H442      1.0  0.8029246877022745  0.01710630273519618  0.043792159776780824  1.0000
  H   H443      1.0  0.8594238782562053  0.027548470080916126  0.08087325905847963  1.0000
  H   H444      1.0  0.8691967011639995  0.051640861263496686  0.05317940781377723  1.0000
  H   H445      1.0  0.8347099863525089  0.09589569950622212  0.039873761123790055  1.0000
  H   H446      1.0  0.805245628056139  0.11804572836273236  0.03582129002869537  1.0000
  H   H447      1.0  0.7886843079560123  0.0858938003809361  0.47028040801632354  1.0000
  H   H448      1.0  0.816810693061576  0.06440831997037946  0.4742771818993399  1.0000
  C   C705      1.0  0.48451352064198616  0.4609136117383899  0.07168938748643379  1.0000
  C   C706      1.0  0.4769670447918135  0.44237738280870303  0.06369202981338601  1.0000
  C   C707      1.0  0.4883654527276832  0.43031207314842224  0.047969269258513365  1.0000
  C   C708      1.0  0.5086812094163908  0.4353451249902024  0.04272357157110828  1.0000
  C   C709      1.0  0.5161718162717269  0.4540849502420008  0.052603204733774514  1.0000
  C   C710      1.0  0.5041168422211575  0.4664804938755  0.06636422602414167  1.0000
  H   H449      1.0  0.4616209230639581  0.4379471912591387  0.06988621292341521  1.0000
  H   H450      1.0  0.4818608040415398  0.41599160722511785  0.04242567312735372  1.0000
  H   H451      1.0  0.5319414905881175  0.4580543445267587  0.05074632862425694  1.0000
  H   H452      1.0  0.5097417211758931  0.481147332584764  0.07304408156652835  1.0000
  C   C711      1.0  0.5458833851699458  0.4453476719318967  0.005754392843582552  1.0000
  C   C712      1.0  0.5433518230111488  0.426202738369087  0.01591015355277402  1.0000
  C   C713      1.0  0.5600745484202572  0.4129719889478733  0.015744549594516315  1.0000
  C   C714      1.0  0.5790939718179567  0.41901763007448756  0.007562919418836673  1.0000
  C   C715      1.0  0.581438949082138  0.4390139247544853  0.00035690253863163157  1.0000
  C   C716      1.0  0.5646242942537488  0.45191737558842743  0.49802560229365844  1.0000
  C   C717      1.0  0.5227669400328626  0.4184730287694076  0.029061789287278105  1.0000
  C   C718      1.0  0.5107499991616616  0.4072205157948158  0.007171097695951953  1.0000
  C   C719      1.0  0.5129556787379864  0.3867106445171238  5.0295735985361745e-05  1.0000
  C   C720      1.0  0.4994057764799152  0.3769923093195927  0.48439702062810297  1.0000
  C   C721      1.0  0.484067847359188  0.38824230112645464  0.4732085936936673  1.0000
  C   C722      1.0  0.48312612079934397  0.408867473460804  0.4780689465001134  1.0000
  C   C723      1.0  0.4970661375787348  0.41821158794768865  0.4933974723909917  1.0000
  C   C724      1.0  0.5412064943568936  0.41403519537661443  0.0697871553410218  1.0000
  C   C725      1.0  0.5461788588418687  0.4041096383580031  0.0904818445506408  1.0000
  C   C726      1.0  0.5400319596914325  0.3839857971008168  0.09431007540427346  1.0000
  C   C727      1.0  0.5259245107370173  0.3755860495651823  0.07800494334851647  1.0000
  C   C728      1.0  0.519448736600783  0.3863296628155766  0.05821283925319643  1.0000
  C   C729      1.0  0.5276457080499299  0.40550198201212656  0.05317940781377723  1.0000
  C   C730      1.0  0.5460611731463528  0.37266740135410387  0.11867969206620198  1.0000
  C   C731      1.0  0.5971285720422587  0.40884516109376123  0.1459764058606128  1.0000
  C   C732      1.0  0.5816138151586202  0.40356383704300797  0.1616307695133567  1.0000
  C   C733      1.0  0.5660284256887774  0.39039051406584113  0.1540046056380688  1.0000
  C   C734      1.0  0.5659761849544868  0.38278615650069087  0.1304439592323532  1.0000
  C   C735      1.0  0.5830460717012591  0.3862093535834207  0.11649189831879872  1.0000
  C   C736      1.0  0.5980526949937783  0.3994013709578415  0.12354784611082192  1.0000
  C   C737      1.0  0.5528154895107865  0.3494472261077659  0.11434583212441832  1.0000
  C   C738      1.0  0.5601969632073909  0.3416500473811832  0.09241292313488164  1.0000
  C   C739      1.0  0.5668633063814589  0.3215746840638166  0.09055894981166131  1.0000
  C   C740      1.0  0.5672017701794893  0.30953203458086337  0.1108488817569585  1.0000
  C   C741      1.0  0.561089166115674  0.31733710368268697  0.13314681612337348  1.0000
  C   C742      1.0  0.5543772852757199  0.3371442801278321  0.1346513665460632  1.0000
  C   C743      1.0  0.5115234816049974  0.35855215859999623  0.13819838997715045  1.0000
  C   C744      1.0  0.49439057173075907  0.3616633901732649  0.15205611033604452  1.0000
  C   C745      1.0  0.489734072142059  0.38070606186208666  0.16117158500596154  1.0000
  C   C746      1.0  0.5023775465138058  0.39743452492136827  0.15538379197754634  1.0000
  C   C747      1.0  0.5195385817598902  0.39398978015995784  0.14148325552076796  1.0000
  C   C748      1.0  0.5251152185602497  0.37452590791835694  0.1335085758656674  1.0000
  H   H453      1.0  0.5325481077980289  0.45516717545247826  0.005551075769260616  1.0000
  H   H454      1.0  0.5586744359324416  0.39701642474737714  0.022049201865569974  1.0000
  H   H455      1.0  0.5913427824435937  0.4078920039972552  0.008765888487657207  1.0000
  H   H456      1.0  0.5670255632204189  0.46743861758916216  0.49128025263544023  1.0000
  H   H457      1.0  0.5250093709974037  0.378094129644874  0.008366778477586267  1.0000
  H   H458      1.0  0.5008093455141873  0.36041317548239926  0.48186071110088696  1.0000
  H   H459      1.0  0.4726501455241689  0.4188019151517166  0.4685822780324364  1.0000
  H   H460      1.0  0.49727032909518387  0.4349390108953649  0.4954892927664424  1.0000
  H   H461      1.0  0.548421402778333  0.42927787443263876  0.06682014489695239  1.0000
  H   H462      1.0  0.5557621707775138  0.4126369336569977  0.10312910302358458  1.0000
  H   H463      1.0  0.5194838665606122  0.36121627263233674  0.08205959153333409  1.0000
  H   H464      1.0  0.5073782798253395  0.37983143784112117  0.047245568349782  1.0000
  H   H465      1.0  0.5819340359321054  0.40922365770902575  0.179864621639488  1.0000
  H   H466      1.0  0.5541951225540344  0.3862833443327087  0.1668184114748169  1.0000
  H   H467      1.0  0.5836267128947308  0.3799212552528026  0.09807154217306953  1.0000
  H   H468      1.0  0.6102194081679146  0.40300740354958114  0.11060395916312864  1.0000
  H   H469      1.0  0.5608217296908149  0.35128409412402267  0.07626907714276521  1.0000
  H   H470      1.0  0.5717164024803953  0.31587677390934976  0.07259306114559422  1.0000
  H   H471      1.0  0.5607573534183372  0.3076052689060216  0.14888808194089104  1.0000
  H   H472      1.0  0.5498007877702702  0.3428364124101297  0.15229559020556707  1.0000
  H   H473      1.0  0.5134635070522977  0.34367116318620833  0.1295366570903212  1.0000
  H   H474      1.0  0.4847320221149176  0.34810756215469907  0.15447775980451942  1.0000
  H   H475      1.0  0.49941374811800593  0.41281626937773197  0.161337225249048  1.0000
  H   H476      1.0  0.5290425433642613  0.40718173690612974  0.1369478333554695  1.0000
  C   C749      1.0  0.45797299073904246  0.4443362295074218  0.3298127648513034  1.0000
  C   C750      1.0  0.4565167457594414  0.42466949133657406  0.320362381212342  1.0000
  C   C751      1.0  0.47283653981023777  0.4167727864035204  0.3081942639025869  1.0000
  C   C752      1.0  0.49047958030169025  0.42819036100457836  0.30387818352687385  1.0000
  C   C753      1.0  0.49238468756217796  0.4472810052385753  0.3154657435771804  1.0000
  C   C754      1.0  0.47601909627774075  0.45547286284105604  0.32839221380709016  1.0000
  H   H477      1.0  0.4426824757553032  0.41618697541612065  0.3223507898259534  1.0000
  H   H478      1.0  0.4713304121182876  0.4016217221868995  0.300795787327489  1.0000
  H   H479      1.0  0.5062978913815553  0.45539768730987645  0.31378938449052257  1.0000
  H   H480      1.0  0.47799599517089153  0.4702245497589761  0.3371840278048646  1.0000
  C   C755      1.0  0.5210143803095268  0.4518785443317493  0.26755525574118616  1.0000
  C   C756      1.0  0.5248807968530387  0.4321023860186888  0.2755451750243473  1.0000
  C   C757      1.0  0.5448299069202558  0.42491628712151547  0.27157017203856026  1.0000
  C   C758      1.0  0.5602268353778851  0.43757278716027304  0.263362543783106  1.0000
  C   C759      1.0  0.5562583324776974  0.45766666543796014  0.25819558417401356  1.0000
  C   C760      1.0  0.5364583969270487  0.464753769563436  0.26062303921508295  1.0000
  C   C761      1.0  0.5086258513467219  0.4177012981784527  0.2881069827256659  1.0000
  C   C762      1.0  0.5002071231558556  0.4053045091835617  0.264654283685379  1.0000
  C   C763      1.0  0.5099819338328994  0.3879629325484819  0.2546705130642992  1.0000
  C   C764      1.0  0.5025399937887224  0.37859750095859185  0.2338611637959391  1.0000
  C   C765      1.0  0.48478629629034725  0.38518277216069674  0.22323152322372272  1.0000
  C   C766      1.0  0.47514144241663075  0.40194422289578463  0.23223741771091888  1.0000
  C   C767      1.0  0.4829169450995064  0.4125069545944216  0.2521977019873354  1.0000
  C   C768      1.0  0.5310338845128144  0.4153883987427952  0.32573616434511293  1.0000
  C   C769      1.0  0.53850167355781  0.4062253906272302  0.3458107458319834  1.0000
  C   C770      1.0  0.5338636842931196  0.3860471265681732  0.3515927332878041  1.0000
  C   C771      1.0  0.5212116752508229  0.37531549870637176  0.3351938049498175  1.0000
  C   C772      1.0  0.5136042467839933  0.3844403904557691  0.31456587982503503  1.0000
  C   C773      1.0  0.5187946089887739  0.4045168711967366  0.3092483381767732  1.0000
  C   C774      1.0  0.5393649166722726  0.3780760005207758  0.3785995313007779  1.0000
  C   C775      1.0  0.5902059395299575  0.4173335571050821  0.40624857078201654  1.0000
  C   C776      1.0  0.5735593378862817  0.41277224943152574  0.4206282484019836  1.0000
  C   C777      1.0  0.5584276532936029  0.3989837510012844  0.4133422547959039  1.0000
  C   C778      1.0  0.5591163743573652  0.3899411528403138  0.3902433328355935  1.0000
  C   C779      1.0  0.5772761527638142  0.39298353799295827  0.3771045963576977  1.0000
  C   C780      1.0  0.5923152447674195  0.40678010148251736  0.38465184073052927  1.0000
  C   C781      1.0  0.5465096689921612  0.354968683943467  0.3831859336504216  1.0000
  C   C782      1.0  0.5524408965189364  0.34176082868678814  0.36439402085864536  1.0000
  C   C783      1.0  0.5573752001661365  0.3214464331517501  0.3681495006307034  1.0000
  C   C784      1.0  0.5556567385048191  0.31349861676549473  0.39107425541317925  1.0000
  C   C785      1.0  0.5496565637704914  0.32652351951278213  0.409902453033671  1.0000
  C   C786      1.0  0.5455143849538392  0.3466507805418316  0.40609980298428283  1.0000
  C   C787      1.0  0.5029211960527261  0.36618787468200253  0.39213014392880136  1.0000
  C   C788      1.0  0.4848506023233893  0.36850617324083434  0.4044180011733177  1.0000
  C   C789      1.0  0.4807492260019291  0.38663687551962633  0.4161507005384864  1.0000
  C   C790      1.0  0.49351807949786364  0.4035011987681504  0.41295400712864766  1.0000
  C   C791      1.0  0.5113095643928761  0.40118652402654814  0.3991857288725374  1.0000
  C   C792      1.0  0.5174139168336616  0.3820833977911412  0.39086380340662913  1.0000
  H   H481      1.0  0.5057925967041297  0.4581256052084906  0.2694003392813712  1.0000
  H   H482      1.0  0.5486545353470346  0.40913945980209154  0.27576288399664045  1.0000
  H   H483      1.0  0.5757527503520932  0.43166791195642173  0.2616335716948106  1.0000
  H   H484      1.0  0.5330570072968888  0.48065564247951076  0.25714695262413456  1.0000
  H   H485      1.0  0.5234257287236977  0.3820717510672599  0.2638124756591786  1.0000
  H   H486      1.0  0.5105547820290394  0.3645910988638506  0.22664955408872628  1.0000
  H   H487      1.0  0.46078967660079817  0.4066588358142234  0.22399713310962055  1.0000
  H   H488      1.0  0.47487455170002585  0.4268103802868373  0.25703265541368064  1.0000
  H   H489      1.0  0.5354878359652653  0.4309941575793416  0.324003563773946  1.0000
  H   H490      1.0  0.5479617705390585  0.41563335614546904  0.35791173620861483  1.0000
  H   H491      1.0  0.5166451586883151  0.3593762257369518  0.33840501229114245  1.0000
  H   H492      1.0  0.5023651732876224  0.3758714386842111  0.30390539714841047  1.0000
  H   H493      1.0  0.5717517493481796  0.42106541441289286  0.43761861944803354  1.0000
  H   H494      1.0  0.5454184329673331  0.39721913257827474  0.4249533999848755  1.0000
  H   H495      1.0  0.5787214503427861  0.38639399180498535  0.3592034761108879  1.0000
  H   H496      1.0  0.6052480873774707  0.40994809195001913  0.3730914943017594  1.0000
  H   H497      1.0  0.5541548507245978  0.34799641308560525  0.34687570555478436  1.0000
  H   H498      1.0  0.5622978966361455  0.31210520934918634  0.35327453509876927  1.0000
  H   H499      1.0  0.5478394925962797  0.3204502023269384  0.4280376104256961  1.0000
  H   H500      1.0  0.5411826337931669  0.3561382014306871  0.4209566261018592  1.0000
  H   H501      1.0  0.5059730540056742  0.35145270121568734  0.38342178503707264  1.0000
  H   H502      1.0  0.4744683688129087  0.3555888388552783  0.406163301434535  1.0000
  H   H503      1.0  0.490020385717938  0.4185283617446189  0.420893127651607  1.0000
  H   H504      1.0  0.5214865978459676  0.41407088996200936  0.39786314686585605  1.0000
  C   C793      1.0  0.6988239854809444  0.5361251683241358  0.13480866127854504  1.0000
  C   C794      1.0  0.6866783744263177  0.5516059532076356  0.14219607098088466  1.0000
  C   C795      1.0  0.6689951225320481  0.5479226363637875  0.15512381117979954  1.0000
  C   C796      1.0  0.6630014259697985  0.5283041092904404  0.1603355825523556  1.0000
  C   C797      1.0  0.6757956063624995  0.5122904551710872  0.152866531985406  1.0000
  C   C798      1.0  0.6935718394171072  0.5165156653177977  0.14105672735921682  1.0000
  H   H505      1.0  0.6908101491178837  0.567699702006869  0.13877604445030178  1.0000
  H   H506      1.0  0.6605213930953241  0.561192260480752  0.16116704940237211  1.0000
  H   H507      1.0  0.6732909237865488  0.4964176606364506  0.15784825754390558  1.0000
  H   H508      1.0  0.703196260372906  0.5040065613928023  0.13646306804382993  1.0000
  C   C799      1.0  0.6307198992355431  0.4969345614355596  0.14360918363521125  1.0000
  C   C800      1.0  0.6306513944674152  0.5031277769025185  0.16746536997081493  1.0000
  C   C801      1.0  0.6189549349208909  0.4915862403421228  0.18367017447517345  1.0000
  C   C802      1.0  0.6099506937698417  0.4735562603721399  0.17689325701597275  1.0000
  C   C803      1.0  0.6111352071937807  0.46694097665558776  0.1531756787260624  1.0000
  C   C804      1.0  0.6210778470679535  0.4791333842159125  0.136063934927959  1.0000
  C   C805      1.0  0.6431469439173191  0.5231147399317552  0.176300725763048  1.0000
  C   C806      1.0  0.6248885370950533  0.5391063236869387  0.17741249291489203  1.0000
  C   C807      1.0  0.6142566338046818  0.5431209594139081  0.1985360687999287  1.0000
  C   C808      1.0  0.6015717090650775  0.5596763866217245  0.20091091083936055  1.0000
  C   C809      1.0  0.5974968429250308  0.5719271159219949  0.1813221832089911  1.0000
  C   C810      1.0  0.6054734399176388  0.5662594869034004  0.15910135410359663  1.0000
  C   C811      1.0  0.6188885887533604  0.549869994072967  0.15680252878032383  1.0000
  C   C812      1.0  0.6620638582656563  0.5016481865497975  0.2087937898778108  1.0000
  C   C813      1.0  0.6694184428391491  0.49944122475249153  0.23141012361620464  1.0000
  C   C814      1.0  0.669223098646406  0.5155332826155453  0.24822632748441995  1.0000
  C   C815      1.0  0.6650067496881217  0.5348449691818016  0.23973023484067713  1.0000
  C   C816      1.0  0.6590943093452217  0.53778447158485  0.21620496614295912  1.0000
  C   C817      1.0  0.6549352746046355  0.5207433054745367  0.20140982723419917  1.0000
  C   C818      1.0  0.6694520316767062  0.5112393297314087  0.27623458676994245  1.0000
  C   C819      1.0  0.6068626316465059  0.48580248924006936  0.2763416270146533  1.0000
  C   C820      1.0  0.6231362287390094  0.4726155166730788  0.27587173848278707  1.0000
  C   C821      1.0  0.6429210192103365  0.4800617424314583  0.2765411935725888  1.0000
  C   C822      1.0  0.6467052452716796  0.501092809643737  0.2775771254324173  1.0000
  C   C823      1.0  0.6298311173901301  0.5140753823554964  0.2775081842578578  1.0000
  C   C824      1.0  0.6102441104600188  0.5065515120556512  0.2765611502283823  1.0000
  C   C825      1.0  0.6733778410558415  0.5302803597690864  0.29400326739194066  1.0000
  C   C826      1.0  0.6898087694488115  0.5435914674958316  0.29079024580917984  1.0000
  C   C827      1.0  0.6934607361882102  0.5594357036009054  0.30657958902474547  1.0000
  C   C828      1.0  0.6809634193557238  0.56234407860131  0.3266868268574599  1.0000
  C   C829      1.0  0.664122549874911  0.5498039262674054  0.32968395370936326  1.0000
  C   C830      1.0  0.6611697024877184  0.5339368310073614  0.3141486042948064  1.0000
  C   C831      1.0  0.6878490656022708  0.48452543326522324  0.3025011742771192  1.0000
  C   C832      1.0  0.7045906553271147  0.4726541468909445  0.3091177127933973  1.0000
  C   C833      1.0  0.7221450108295855  0.4734393038554326  0.2952333230853973  1.0000
  C   C834      1.0  0.7228725562959465  0.48634349726960263  0.2757538127894616  1.0000
  C   C835      1.0  0.7065434011060151  0.49807881378483665  0.2696978748768386  1.0000
  C   C836      1.0  0.6882387207989394  0.49645935074249553  0.28226512530246456  1.0000
  H   H509      1.0  0.6370597663987497  0.5061054311461921  0.1293982304687714  1.0000
  H   H510      1.0  0.6165415508668062  0.49687785156332825  0.20226977767475737  1.0000
  H   H511      1.0  0.6006150975354926  0.4648210662348157  0.19000913405177766  1.0000
  H   H512      1.0  0.6217476959326473  0.47577686121145757  0.11704106920140837  1.0000
  H   H513      1.0  0.6175098697631454  0.5354692185518306  0.2155010404658777  1.0000
  H   H514      1.0  0.5956524554914607  0.562341972412831  0.2190859815429727  1.0000
  H   H515      1.0  0.6013476080189938  0.5745323043146288  0.14259538552089915  1.0000
  H   H516      1.0  0.6246708237056712  0.5450551905759387  0.1388264803622164  1.0000
  H   H517      1.0  0.6612133331423877  0.4881211922309703  0.19678532581440408  1.0000
  H   H518      1.0  0.6734731473131262  0.4839108460444103  0.23617432162655455  1.0000
  H   H519      1.0  0.6631818549490743  0.5484352949079658  0.2511635843689426  1.0000
  H   H520      1.0  0.6553854423686856  0.5531787411723034  0.2101181861259279  1.0000
  H   H521      1.0  0.6208251551778817  0.4557770379218651  0.2742425496734595  1.0000
  H   H522      1.0  0.6553670565436087  0.4690163363123842  0.2743550326424777  1.0000
  H   H523      1.0  0.6328688502427389  0.5305148636574969  0.27622914404563514  1.0000
  H   H524      1.0  0.5977690128543053  0.517740239344997  0.27698931120722564  1.0000
  H   H525      1.0  0.7003642174545603  0.5414349654473759  0.2758064257910991  1.0000
  H   H526      1.0  0.7068626405216131  0.5684818121791242  0.3036114900358146  1.0000
  H   H527      1.0  0.6539505895322107  0.5509869225594335  0.34553860961661687  1.0000
  H   H528      1.0  0.6491253417812426  0.5235329435812199  0.3191232543117064  1.0000
  H   H529      1.0  0.674211227632804  0.484857617209042  0.3136787157629402  1.0000
  H   H530      1.0  0.7038796694260793  0.46360487842264847  0.32542230057672356  1.0000
  H   H531      1.0  0.7367655320538379  0.4874668779804348  0.2650788161813508  1.0000
  H   H532      1.0  0.7080101201666377  0.5087363299849165  0.25495534896971617  1.0000
  C   C837      1.0  0.6865635737621542  0.5573869301382635  0.38626651560837066  1.0000
  C   C838      1.0  0.6774279253969043  0.5692281830289044  0.40393722719283687  1.0000
  C   C839      1.0  0.6643456784639218  0.560432331150209  0.4200549481082781  1.0000
  C   C840      1.0  0.6577868508793523  0.5402090739212642  0.417153976052471  1.0000
  C   C841      1.0  0.667008876288651  0.5287326391201297  0.39921112825263827  1.0000
  C   C842      1.0  0.6815537427597782  0.5371653795487553  0.3843143918234748  1.0000
  H   H533      1.0  0.6801818318735499  0.5857748670141275  0.4047119082859136  1.0000
  H   H534      1.0  0.6584679059599021  0.5701551854277611  0.4346468919762311  1.0000
  H   H535      1.0  0.6629532800245149  0.5128450113533738  0.3963954255443126  1.0000
  H   H536      1.0  0.6879864289365939  0.5280456674337274  0.36963899284947616  1.0000
  C   C843      1.0  0.6208058607933851  0.5099099317491124  0.40281784022696254  1.0000
  C   C844      1.0  0.6268716406444277  0.5120604870070804  0.42694725132279426  1.0000
  C   C845      1.0  0.6201607410754887  0.4968488855491573  0.44280734995435517  1.0000
  C   C846      1.0  0.609869745442192  0.479466295708233  0.4346251210790017  1.0000
  C   C847      1.0  0.6058300814141742  0.4763483063834109  0.4106571774709542  1.0000
  C   C848      1.0  0.6104396087698634  0.4924860089519525  0.39512545653926884  1.0000
  C   C849      1.0  0.6417949262446788  0.530258528869301  0.4357172944233394  1.0000
  C   C850      1.0  0.6248285858290448  0.5463568995227793  0.4454053436903876  1.0000
  C   C851      1.0  0.616722412493399  0.5456874011137106  0.4686566619313033  1.0000
  C   C852      1.0  0.6037810394260956  0.5608162619832835  0.4769441168099318  1.0000
  C   C853      1.0  0.5991267199086323  0.5772007944443519  0.462480984083919  1.0000
  C   C854      1.0  0.6058905232205901  0.5770277879899336  0.4386944646194491  1.0000
  C   C855      1.0  0.6169764560965519  0.5611264196309139  0.43003690448792214  1.0000
  C   C856      1.0  0.6674604955523455  0.503819006465426  0.45145039615439597  1.0000
  C   C857      1.0  0.6801918205730844  0.49620063871587305  0.46872560310586275  1.0000
  C   C858      1.0  0.6843261312852585  0.5069513259359816  0.4903168904330427  1.0000
  C   C859      1.0  0.6763257384634501  0.5264913246944002  0.4922508718035808  1.0000
  C   C860      1.0  0.6638759359031413  0.5345189004074697  0.47514801778851273  1.0000
  C   C861      1.0  0.6582880981377436  0.5227184461878889  0.45542539914018293  1.0000
  C   C862      1.0  0.6942172402569436  0.4955288934048213  0.012535519342914279  1.0000
  C   C863      1.0  0.636151366229033  0.4604908569074403  0.019810972206252116  1.0000
  C   C864      1.0  0.6529872856371085  0.4513258687444848  0.010592738901412673  1.0000
  C   C865      1.0  0.6719727358501814  0.46112700210042334  0.010178456869553036  1.0000
  C   C866      1.0  0.674419735053398  0.48131693075677806  0.01850743973464647  1.0000
  C   C867      1.0  0.6571667569293288  0.4901077380357679  0.02951063261848929  1.0000
  C   C868      1.0  0.6386697887108571  0.4801848990659707  0.02911077380604408  1.0000
  C   C869      1.0  0.7021094796670175  0.5092317559212179  0.03462026219821112  1.0000
  C   C870      1.0  0.711787456381761  0.5283272452741075  0.0315948331799097  1.0000
  C   C871      1.0  0.7180872902049454  0.5398852526466079  0.05128388836167761  1.0000
  C   C872      1.0  0.7151245986065766  0.5331911620042395  0.07460088214256842  1.0000
  C   C873      1.0  0.707311955879434  0.5133884713365767  0.0774162220026069  1.0000
  C   C874      1.0  0.7004507106685217  0.501896543797634  0.05818000148320888  1.0000
  C   C875      1.0  0.7208412146728888  0.4669183506574913  0.019789927005597105  1.0000
  C   C876      1.0  0.739049195636097  0.45783938807977376  0.015230847131976108  1.0000
  C   C877      1.0  0.7517334684577086  0.4642325693157502  0.4973761038596503  1.0000
  C   C878      1.0  0.7463078446028851  0.4813565203193167  0.4841647977243235  1.0000
  C   C879      1.0  0.7280328711774127  0.4913256190394965  0.4888963393888295  1.0000
  C   C880      1.0  0.7147068066247565  0.4836524686013916  0.00588772144669779  1.0000
  H   H537      1.0  0.6241396455340855  0.5211519241310201  0.3886812709593896  1.0000
  H   H538      1.0  0.6232812868636685  0.4976665908901535  0.462058265829383  1.0000
  H   H539      1.0  0.604467081606908  0.46873779334633797  0.4478400556972001  1.0000
  H   H540      1.0  0.6062720967651475  0.491580728724335  0.3758963115614704  1.0000
  H   H541      1.0  0.6204499370091459  0.5339379340000343  0.48147972039937387  1.0000
  H   H542      1.0  0.5979758010006663  0.5600362686219192  0.4955509769752588  1.0000
  H   H543      1.0  0.6019104357397445  0.5904090050817704  0.4281646073262005  1.0000
  H   H544      1.0  0.6213355631916261  0.5608286897878252  0.41117605052158634  1.0000
  H   H545      1.0  0.6642378813510782  0.49497762704729126  0.4355540126941195  1.0000
  H   H546      1.0  0.6853968043965234  0.4805693777020461  0.46629814806479347  1.0000
  H   H547      1.0  0.6776920657389024  0.5351909661773973  0.009102629840551742  1.0000
  H   H548      1.0  0.6570803957455814  0.5494462877980901  0.4779691632211457  1.0000
  H   H549      1.0  0.6517475088323953  0.43553154895168994  0.0032615030773103237  1.0000
  H   H550      1.0  0.6840134187002018  0.45238920264288673  0.0009628591781810636  1.0000
  H   H551      1.0  0.6578571732670434  0.5056334748197426  0.03715112900111978  1.0000
  H   H552      1.0  0.6254767076167241  0.4878744583764561  0.03631821075795465  1.0000
  H   H553      1.0  0.7146768084810818  0.5343924311786583  0.013427473002399593  1.0000
  H   H554      1.0  0.7237465195812899  0.5552255340500171  0.04730090271357319  1.0000
  H   H555      1.0  0.7049245236414727  0.5074991386327582  0.09571048836854958  1.0000
  H   H556      1.0  0.6938885959735493  0.4872051720186007  0.062043428620695604  1.0000
  H   H557      1.0  0.7115817313461786  0.4609432199573687  0.03426158666635804  1.0000
  H   H558      1.0  0.7431725155794869  0.4456840287710781  0.026728856225012695  1.0000
  H   H559      1.0  0.7560639918694387  0.48735481209181275  0.4701642965644338  1.0000
  H   H560      1.0  0.7250570788656718  0.5050773745716353  0.4795820238575513  1.0000
  C   C881      1.0  0.45117572697108943  0.5080621064638905  0.09304482342696271  1.0000
  C   C882      1.0  0.4319017369931474  0.5013412773405713  0.09946778238204337  1.0000
  C   C883      1.0  0.4183400613498105  0.5139399664783579  0.11144866997562633  1.0000
  C   C884      1.0  0.42473308777233465  0.5331430123660165  0.12021798737959716  1.0000
  C   C885      1.0  0.4440688485807997  0.5398621558417259  0.11308185011611262  1.0000
  C   C886      1.0  0.45701090880489437  0.52732931707209  0.10048303188950408  1.0000
  H   H561      1.0  0.42642399709451667  0.4863623401065556  0.09296662962108072  1.0000
  H   H562      1.0  0.40289055677319624  0.5094496599492031  0.11506808164000107  1.0000
  H   H563      1.0  0.44906737488131643  0.5553056790958741  0.1181082060139323  1.0000
  H   H564      1.0  0.4712156433983228  0.5337029720904367  0.09543780788075233  1.0000
  C   C887      1.0  0.43489188709158794  0.5686812049773594  0.16039853673017707  1.0000
  C   C888      1.0  0.4167019859878073  0.568066718241933  0.14744866278574573  1.0000
  C   C889      1.0  0.40537409329342855  0.5862248648478472  0.14733763120987617  1.0000
  C   C890      1.0  0.4134759400984967  0.6048762435067913  0.15588542973453867  1.0000
  C   C891      1.0  0.4334916201487099  0.6056037843014804  0.16384287409599935  1.0000
  C   C892      1.0  0.4438455197332365  0.5875137616707787  0.16620048084179134  1.0000
  C   C893      1.0  0.4081573421544797  0.5474814313335339  0.13414700742691724  1.0000
  C   C894      1.0  0.3971839065311622  0.5367177684533972  0.1556938458389206  1.0000
  C   C895      1.0  0.3784069423877918  0.5427101079163446  0.16535123442570418  1.0000
  C   C896      1.0  0.36904668973097704  0.5318424551901074  0.18333272556811897  1.0000
  C   C897      1.0  0.3785630255899267  0.5147369861949476  0.19256358599335144  1.0000
  C   C898      1.0  0.3975071813853321  0.5096287578772559  0.18472787723223133  1.0000
  C   C899      1.0  0.40711358560834066  0.5206464790618822  0.16678811364283944  1.0000
  C   C900      1.0  0.4033603078024663  0.5653992798490922  0.09460670387902297  1.0000
  C   C901      1.0  0.3926614041432282  0.5726108336708747  0.0752342338277981  1.0000
  C   C902      1.0  0.3714627786504136  0.5706043519839866  0.07351378867425096  1.0000
  C   C903      1.0  0.36227619398041033  0.5581895154556151  0.09023928047067743  1.0000
  C   C904      1.0  0.3731494717616116  0.5494778993248334  0.1087735709785734  1.0000
  C   C905      1.0  0.39384577930763426  0.55368866297793  0.11225219750753188  1.0000
  C   C906      1.0  0.35967488572129097  0.5800903963726324  0.051282074120241834  1.0000
  C   C907      1.0  0.39733757563760047  0.629393313761098  0.02121991210527639  1.0000
  C   C908      1.0  0.38645843272935904  0.6168336258400154  0.00563271663387066  1.0000
  C   C909      1.0  0.37245966380873896  0.6030854281239992  0.014528409132872039  1.0000
  C   C910      1.0  0.37030112868692466  0.6000909429093377  0.039496761753435625  1.0000
  C   C911      1.0  0.37898037272095364  0.615028075757289  0.054410552052095384  1.0000
  C   C912      1.0  0.39279187544761185  0.6293550617823656  0.04546833743929503  1.0000
  C   C913      1.0  0.33790731971525695  0.5897851337859903  0.05636576004743206  1.0000
  C   C914      1.0  0.3317481277518828  0.5978633233166363  0.07856844673846876  1.0000
  C   C915      1.0  0.31168671784267915  0.6045065041877321  0.08228401319893967  1.0000
  C   C916      1.0  0.2985230790392477  0.6051115096622542  0.06291372023743774  1.0000
  C   C917      1.0  0.3054169799581023  0.5992906013187731  0.0401732923848368  1.0000
  C   C918      1.0  0.3249564441594658  0.591790464026068  0.037166005780893144  1.0000
  C   C919      1.0  0.3429175980283407  0.546149139040926  0.03404188202848547  1.0000
  C   C920      1.0  0.34290880087321834  0.5288125317355659  0.01928574931059473  1.0000
  C   C921      1.0  0.35903123746683463  0.5248635225789494  0.0041849519681207425  1.0000
  C   C922      1.0  0.37610644201538457  0.5371231505114296  0.004700196535881274  1.0000
  C   C923      1.0  0.37628622530977224  0.5540020223727274  0.01982621183431264  1.0000
  C   C924      1.0  0.3595215201781711  0.5597922238027306  0.03391506655212467  1.0000
  H   H565      1.0  0.4438782196729738  0.5547365238635826  0.1633740741089946  1.0000
  H   H566      1.0  0.3896112259949801  0.5854047902580655  0.14160027409337556  1.0000
  H   H567      1.0  0.4050595400219192  0.6186665949641222  0.15511945700035368  1.0000
  H   H568      1.0  0.459670759759537  0.5879657215419373  0.17160855313769846  1.0000
  H   H569      1.0  0.3708484908888881  0.5555303464562135  0.15705289409846104  1.0000
  H   H570      1.0  0.35448498352653607  0.5363399074073112  0.19055522072394646  1.0000
  H   H571      1.0  0.4056622567249224  0.4974156874148391  0.19336548070796478  1.0000
  H   H572      1.0  0.4226944352186088  0.5167594282251421  0.16214002708437922  1.0000
  H   H573      1.0  0.41970317546668884  0.5695627789945249  0.09531589085626813  1.0000
  H   H574      1.0  0.4010467117793021  0.5811776466655253  0.061856561752810596  1.0000
  H   H575      1.0  0.3458678599124286  0.555199766721802  0.08888259072500354  1.0000
  H   H576      1.0  0.3653532531490868  0.5389515949748452  0.12072162080216879  1.0000
  H   H577      1.0  0.3886243217121195  0.6176358337261043  0.48648884100355366  1.0000
  H   H578      1.0  0.36498829916864073  0.5923860460979113  0.002085874626926998  1.0000
  H   H579      1.0  0.3765286185870189  0.6144006441256233  0.07383363943937842  1.0000
  H   H580      1.0  0.4014477316374941  0.639392339840204  0.05771736991708579  1.0000
  H   H581      1.0  0.3416440675725712  0.5972714433667162  0.09437085249237198  1.0000
  H   H582      1.0  0.30653888299130455  0.6085608489294324  0.10021960403302929  1.0000
  H   H583      1.0  0.2947693037838891  0.5999999702393757  0.025098941719110805  1.0000
  H   H584      1.0  0.32940551331603846  0.5873864300656787  0.01889568740190271  1.0000
  H   H585      1.0  0.329077472775397  0.5487476116882963  0.04454633994163324  1.0000
  H   H586      1.0  0.3300498138264705  0.5184432271693287  0.019980966628784402  1.0000
  H   H587      1.0  0.3894699545226249  0.5337134449630145  0.49310900800270324  1.0000
  H   H588      1.0  0.39002332636698733  0.5632634484814297  0.020215548046430346  1.0000
  C   C925      1.0  0.41845873323417254  0.48601367643207405  0.336734095928792  1.0000
  C   C926      1.0  0.39942351996154546  0.4849319738608999  0.3475306467130998  1.0000
  C   C927      1.0  0.3924890321877116  0.5011174805854507  0.36114290020573325  1.0000
  C   C928      1.0  0.4045892567616384  0.5182252599217289  0.3663661012993347  1.0000
  C   C929      1.0  0.4234859870472386  0.5190668107706482  0.3551250613632616  1.0000
  C   C930      1.0  0.43056316701386255  0.5031717643279444  0.3406274580499691  1.0000
  H   H589      1.0  0.38977091759041294  0.47152539458059706  0.34454803379268273  1.0000
  H   H590      1.0  0.3771095143963376  0.5001476666310625  0.3676777978574014  1.0000
  H   H591      1.0  0.43369185627434265  0.5319564963909029  0.35818568666541706  1.0000
  H   H592      1.0  0.44535722593418525  0.5045695030926081  0.3321749072006849  1.0000
  C   C931      1.0  0.43194759170571473  0.5434639936192489  0.405756911352921  1.0000
  C   C932      1.0  0.41345204276329867  0.5512300681914396  0.39747308495716405  1.0000
  C   C933      1.0  0.4104714647185565  0.5720229495663912  0.4006715926084386  1.0000
  C   C934      1.0  0.4258717289878619  0.5850457737332346  0.40834039115746723  1.0000
  C   C935      1.0  0.44510863747423185  0.5770234931063013  0.4137903724305408  1.0000
  C   C936      1.0  0.44764090686977015  0.555978623150877  0.41346199473066514  1.0000
  C   C937      1.0  0.3964127960469318  0.5374136131504139  0.3827976859831654  1.0000
  C   C938      1.0  0.38362740092835546  0.5299728221227906  0.404895146670927  1.0000
  C   C939      1.0  0.36769439809971105  0.5416827723232213  0.41446889872752135  1.0000
  C   C940      1.0  0.35603374660385556  0.5341722183541066  0.4330249601326466  1.0000
  C   C941      1.0  0.36115946239803226  0.5156113260176642  0.44270030970964436  1.0000
  C   C942      1.0  0.3779107866684537  0.5049592591478899  0.43538528824059225  1.0000
  C   C943      1.0  0.3892342242102706  0.5122021550758522  0.4161688429528442  1.0000
  C   C944      1.0  0.39912839154072904  0.5606351371298203  0.34638767460856046  1.0000
  C   C945      1.0  0.3931475337207682  0.5681486245493198  0.3251283934641277  1.0000
  C   C946      1.0  0.37272624183279496  0.5676316268067  0.31817622028223097  1.0000
  C   C947      1.0  0.35898395380905745  0.5573929367519533  0.33347027558582953  1.0000
  C   C948      1.0  0.3656062799807852  0.5490674253583319  0.3547531418689273  1.0000
  C   C949      1.0  0.38591851920502446  0.5503019657409876  0.3616472593248793  1.0000
  C   C950      1.0  0.36747149789393774  0.5760583100153918  0.29193503215515504  1.0000
  C   C951      1.0  0.4093928564153359  0.6262654145858154  0.27387970138630413  1.0000
  C   C952      1.0  0.40220962898177426  0.6130766879124316  0.2559549960008292  1.0000
  C   C953      1.0  0.38758205581291727  0.5984714896191462  0.2613287791336001  1.0000
  C   C954      1.0  0.38062838487184525  0.5959960182027104  0.28474156486229996  1.0000
  C   C955      1.0  0.386051719608257  0.6107034391198137  0.3019931866751017  1.0000
  C   C956      1.0  0.400904510832538  0.6250742086063714  0.2964924066418264  1.0000
  C   C957      1.0  0.3453672118453015  0.5850044405694049  0.28898326133914615  1.0000
  C   C958      1.0  0.3357302001847392  0.5965762285861708  0.3071438181112721  1.0000
  C   C959      1.0  0.31609659287837394  0.6030961219862039  0.3039561959086123  1.0000
  C   C960      1.0  0.30603829971463087  0.5996926408326926  0.281953075775511  1.0000
  C   C961      1.0  0.31594914069141256  0.5896467041396567  0.2633117450229042  1.0000
  C   C962      1.0  0.33587189806464895  0.5833970158205134  0.2662998006676286  1.0000
  C   C963      1.0  0.35608525447274564  0.5403732814013062  0.2739613422509141  1.0000
  C   C964      1.0  0.3591907181037973  0.5226096214236893  0.2611890825430453  1.0000
  C   C965      1.0  0.3779132481500514  0.5184538119812552  0.2509984883982869  1.0000
  C   C966      1.0  0.3934500121551664  0.5328272757619895  0.253777906277897  1.0000
  C   C967      1.0  0.3901742681270932  0.5506983941848382  0.26639958394659635  1.0000
  C   C968      1.0  0.37135761217815333  0.5553953773773126  0.2767171749918591  1.0000
  H   H593      1.0  0.43426951601634095  0.5268046300513054  0.4048534191179042  1.0000
  H   H594      1.0  0.39663460379132376  0.5788469311450184  0.39388814388006904  1.0000
  H   H595      1.0  0.42369947635830474  0.6016318679616333  0.4081281249094813  1.0000
  H   H596      1.0  0.46238368764565824  0.5492668514782659  0.4165933754488159  1.0000
  H   H597      1.0  0.364009961144092  0.5563352710726017  0.40636649647534206  1.0000
  H   H598      1.0  0.3420943541159551  0.5424705101363713  0.43881783303708194  1.0000
  H   H599      1.0  0.38278114425181065  0.49062994557201106  0.4442678143101555  1.0000
  H   H600      1.0  0.40176178353197856  0.5030828805361953  0.40901710321301193  1.0000
  H   H601      1.0  0.41556000229793844  0.5602374384727931  0.3506003432224342  1.0000
  H   H602      1.0  0.40505958801927505  0.5741066189158475  0.3134519355834681  1.0000
  H   H603      1.0  0.34283951572367  0.5560484976387742  0.3279459104138891  1.0000
  H   H604      1.0  0.3552348926679519  0.5394091841387888  0.36543176695990964  1.0000
  H   H605      1.0  0.40845832725839915  0.6145085625662733  0.2378053246773179  1.0000
  H   H606      1.0  0.38274324859929415  0.5888877348268827  0.24664793743529412  1.0000
  H   H607      1.0  0.38025452590590253  0.6096873921466461  0.32034968152229154  1.0000
  H   H608      1.0  0.4063152120268203  0.6353491471539494  0.3107523443270322  1.0000
  H   H609      1.0  0.3426651901102385  0.598504938770946  0.3250794089453617  1.0000
  H   H610      1.0  0.3082569678754644  0.6103011479470645  0.31896541530679384  1.0000
  H   H611      1.0  0.30857230869159186  0.5868134103338405  0.2463304451840332  1.0000
  H   H612      1.0  0.34341413538088716  0.5756999258560194  0.25161533048645107  1.0000
  H   H613      1.0  0.34098738388082717  0.5428239744104267  0.2814378312077504  1.0000
  H   H614      1.0  0.34707720529139263  0.5116397423888583  0.26040714448422553  1.0000
  H   H615      1.0  0.4084657393521857  0.5306903307463082  0.2458968414808825  1.0000
  H   H616      1.0  0.4031860032168155  0.5605198998037896  0.27022400489321385  1.0000
  C   C969      1.0  0.5605953610451003  0.7039505311825234  0.2806704070804168  1.0000
  C   C970      1.0  0.569822619457916  0.6919276638572592  0.2631375778450696  1.0000
  C   C971      1.0  0.5581879483807359  0.6801456381081482  0.24750607363441657  1.0000
  C   C972      1.0  0.5371108857496377  0.6785235316376931  0.2503925317587375  1.0000
  C   C973      1.0  0.5285600637947071  0.6913477290036631  0.26767499567594744  1.0000
  C   C974      1.0  0.5396857696387858  0.7037381800965262  0.2824538064117854  1.0000
  H   H617      1.0  0.5862903535307477  0.6918162435926241  0.2608806614989633  1.0000
  H   H618      1.0  0.5655394394208295  0.6710856935751818  0.23362349816785236  1.0000
  H   H619      1.0  0.5120399087938148  0.69144637551426  0.27001536712809954  1.0000
  H   H620      1.0  0.5315589897163119  0.7127447123896343  0.29626018373804697  1.0000
  C   C975      1.0  0.5013386356945927  0.6495872545688346  0.26861114425680827  1.0000
  C   C976      1.0  0.5035117355674725  0.6541823407445772  0.24403905825064706  1.0000
  C   C977      1.0  0.48731238964960233  0.6494683281742476  0.22915139302866247  1.0000
  C   C978      1.0  0.4699610643491958  0.6403848178967021  0.2380575042368909  1.0000
  C   C979      1.0  0.4680053217384893  0.6359550126798393  0.2620708038808328  1.0000
  C   C980      1.0  0.484214446668481  0.6404434128874502  0.27773496443732987  1.0000
  C   C981      1.0  0.5239173451171795  0.6643193353638085  0.2327272628985786  1.0000
  C   C982      1.0  0.5343450640846099  0.6438329657397989  0.22143542420230367  1.0000
  C   C983      1.0  0.5310344410179342  0.6361284143332928  0.19822583351441087  1.0000
  C   C984      1.0  0.54098295935593  0.6185165217593066  0.18995470680870435  1.0000
  C   C985      1.0  0.5534649712307842  0.6076196885948635  0.20501835344995925  1.0000
  C   C986      1.0  0.5558218090023845  0.6141413038928137  0.22852910821619102  1.0000
  C   C987      1.0  0.5461071908044564  0.6318792593619351  0.23677483554179668  1.0000
  C   C988      1.0  0.5030446709580059  0.6945973937552349  0.21690526333716897  1.0000
  C   C989      1.0  0.49644529292111594  0.706750656135597  0.19869390780484128  1.0000
  C   C990      1.0  0.5060924701034057  0.7063115600307817  0.17612166013333685  1.0000
  C   C991      1.0  0.523587059282676  0.694789905568103  0.17323737909873888  1.0000
  C   C992      1.0  0.5310393491432921  0.6834622515231269  0.19222250860342538  1.0000
  C   C993      1.0  0.5195409961920638  0.6813245738647167  0.2133112510528951  1.0000
  C   C994      1.0  0.4938650432881057  0.7150147710482865  0.15437434804268013  1.0000
  C   C995      1.0  0.45628738801496305  0.6587725028695622  0.146880623792204  1.0000
  C   C996      1.0  0.44904916192699534  0.6751486509169496  0.16010408534515047  1.0000
  C   C997      1.0  0.46007348206797843  0.6933191017495279  0.16151248097174403  1.0000
  C   C998      1.0  0.47891525862087564  0.6956319965588927  0.1499824323749516  1.0000
  C   C999      1.0  0.4863900310502878  0.6783297995363244  0.13772197017611545  1.0000
  C   C1000     1.0  0.4749662751453698  0.6605378744725755  0.13509259006324412  1.0000
  C   C1001     1.0  0.5055305724171015  0.7215102003698317  0.130252012488448  1.0000
  C   C1002     1.0  0.5251352496476955  0.729321258635394  0.1317037684853566  1.0000
  C   C1003     1.0  0.5352939267202604  0.7351279307315172  0.11087845389236167  1.0000
  C   C1004     1.0  0.5262472519065058  0.7329027754709759  0.08869227679839055  1.0000
  C   C1005     1.0  0.5062174116661637  0.7268918409956685  0.08768827558783165  1.0000
  C   C1006     1.0  0.49558025666490396  0.7208303247196116  0.10800687254781413  1.0000
  C   C1007     1.0  0.4646397463022169  0.7424932356293125  0.1537404520850197  1.0000
  C   C1008     1.0  0.45434479109675036  0.7591043171768224  0.1636180895821066  1.0000
  C   C1009     1.0  0.46406495426238803  0.7721187007689222  0.17989201668516822  1.0000
  C   C1010     1.0  0.48424845458889565  0.7682883362315187  0.1862191836924399  1.0000
  C   C1011     1.0  0.49380352329845134  0.7513769210654342  0.1765942700273567  1.0000
  C   C1012     1.0  0.4840316945556625  0.7371835086593254  0.16173744690978034  1.0000
  H   H621      1.0  0.5130298232168673  0.6528329689318072  0.2810931253349528  1.0000
  H   H622      1.0  0.4872788925517389  0.6538021715358522  0.2100238455712675  1.0000
  H   H623      1.0  0.4577310730107355  0.6368223809698231  0.2256372073675628  1.0000
  H   H624      1.0  0.4830167474409546  0.6381588848995576  0.29703667907255943  1.0000
  H   H625      1.0  0.5214813013871995  0.6441543066810287  0.18591076264835782  1.0000
  H   H626      1.0  0.5377703283153726  0.6128889559576144  0.1719461834688965  1.0000
  H   H627      1.0  0.565512392780743  0.6055961884577541  0.2406282843513866  1.0000
  H   H628      1.0  0.547998590344699  0.6365373415691817  0.25560847588659585  1.0000
  H   H629      1.0  0.49400702857316403  0.6937529638054748  0.23331144864089873  1.0000
  H   H630      1.0  0.4827007653898213  0.715659133844791  0.20177811824566186  1.0000
  H   H631      1.0  0.531826896156469  0.6930384632890606  0.15600426254858202  1.0000
  H   H632      1.0  0.5445049052821137  0.6743876214864539  0.18927980899459537  1.0000
  H   H633      1.0  0.43419370653510425  0.6740455961579103  0.16834309997744376  1.0000
  H   H634      1.0  0.453194780358022  0.7050777608680421  0.17232681132212246  1.0000
  H   H635      1.0  0.5015292967547315  0.6778897784989912  0.12935813573304075  1.0000
  H   H636      1.0  0.48112016342685726  0.6478701738461584  0.1245429575383455  1.0000
  H   H637      1.0  0.5326262180772843  0.7307281446811981  0.14875781940580227  1.0000
  H   H638      1.0  0.5504254090164001  0.7418793432879338  0.11274657829878106  1.0000
  H   H639      1.0  0.4990279119329659  0.7247581214784461  0.07033795904092364  1.0000
  H   H640      1.0  0.47997375166109446  0.7153506452586513  0.10649379519037626  1.0000
  H   H641      1.0  0.4568871521711408  0.7327850842988575  0.14096710383228947  1.0000
  H   H642      1.0  0.4383390082954616  0.7610104075771208  0.1598226964984615  1.0000
  H   H643      1.0  0.49152774099261054  0.778152466417643  0.19995117711983462  1.0000
  H   H644      1.0  0.5096580382610971  0.7499504571345839  0.18157835409972278  1.0000
  C   C1013     1.0  0.5257697038641294  0.7207221092344185  0.027226684074989856  1.0000
  C   C1014     1.0  0.5416657345991082  0.7081601013405926  0.020722809951873544  1.0000
  C   C1015     1.0  0.537811048957623  0.6896447896277345  0.009515097630975602  1.0000
  C   C1016     1.0  0.5178543913341529  0.6832254424712884  0.003938215132855083  1.0000
  C   C1017     1.0  0.5019357671436679  0.6964402404759005  0.010864711835049976  1.0000
  C   C1018     1.0  0.5059610885704925  0.7150285264415241  0.02152724460449698  1.0000
  H   H645      1.0  0.55763015568801  0.7129217620599924  0.024715592503731162  1.0000
  H   H646      1.0  0.5509063472949629  0.6801776493454726  0.003909187269882652  1.0000
  H   H647      1.0  0.48629008442004457  0.6930689119824186  0.007089552506799435  1.0000
  H   H648      1.0  0.49324567892105914  0.7254218310909272  0.025580259972022394  1.0000
  C   C1019     1.0  0.4856611822428736  0.6519899174176454  0.018585270692241296  1.0000
  C   C1020     1.0  0.492566323268454  0.6511932178077195  0.4947127974319299  1.0000
  C   C1021     1.0  0.4812318917835629  0.640135070250226  0.47786575145930643  1.0000
  C   C1022     1.0  0.46302348417708167  0.6312723243790955  0.4844568905954836  1.0000
  C   C1023     1.0  0.4555616931791097  0.6334482614246327  0.0077045803535277235  1.0000
  C   C1024     1.0  0.46758495577670184  0.6426559160632069  0.02532554047443933  1.0000
  C   C1025     1.0  0.5134509527453104  0.6627870703385208  0.48809807315708764  1.0000
  C   C1026     1.0  0.5287870481126791  0.6444959429428657  0.49122038266805956  1.0000
  C   C1027     1.0  0.530442334167197  0.630058956922684  0.4724992252922786  1.0000
  C   C1028     1.0  0.5438915107100901  0.6143773608903409  0.47256998070827383  1.0000
  C   C1029     1.0  0.5560516783366658  0.6116902426043038  0.49266996157524523  1.0000
  C   C1030     1.0  0.5540292219039503  0.6248878640590424  0.012453878478304323  1.0000
  C   C1031     1.0  0.5399247532754234  0.6404480045971265  0.01193908747090265  1.0000
  C   C1032     1.0  0.4960435784013629  0.6805048096133731  0.45197289768789967  1.0000
  C   C1033     1.0  0.49541748210238945  0.6861539474360604  0.42784711507493955  1.0000
  C   C1034     1.0  0.5120552517799343  0.6837172276142521  0.41277076874363416  1.0000
  C   C1035     1.0  0.5302819478735535  0.6783797495657223  0.4242785021707665  1.0000
  C   C1036     1.0  0.5310871443744524  0.6735775634910198  0.44810674918825927  1.0000
  C   C1037     1.0  0.5134772894843698  0.6726453497622639  0.46170993147371386  1.0000
  C   C1038     1.0  0.5082038174339059  0.681559201168292  0.38456294290017623  1.0000
  C   C1039     1.0  0.4831535938540094  0.6186652746375747  0.39225532658786993  1.0000
  C   C1040     1.0  0.4702150754988967  0.6349725797218377  0.3888989799316828  1.0000
  C   C1041     1.0  0.47819017884975307  0.6547771308964997  0.3855226766197022  1.0000
  C   C1042     1.0  0.49903702123522137  0.6582824095390792  0.38424000792460794  1.0000
  C   C1043     1.0  0.5115174889511425  0.6412502857767544  0.38721899236215346  1.0000
  C   C1044     1.0  0.5038536341259053  0.6218697813719681  0.39166025539693516  1.0000
  C   C1045     1.0  0.5287821519688592  0.6851980066283744  0.36884072661773437  1.0000
  C   C1046     1.0  0.5415351766838524  0.7019823730269048  0.37361762431813467  1.0000
  C   C1047     1.0  0.5574256697733917  0.7067469600933862  0.3585213213310358  1.0000
  C   C1048     1.0  0.561291781506892  0.6946854197614257  0.3381691609044915  1.0000
  C   C1049     1.0  0.5495007110062413  0.6771042993164863  0.33387303718457195  1.0000
  C   C1050     1.0  0.532686577391054  0.6732090457820604  0.34814748880126395  1.0000
  C   C1051     1.0  0.48494296654061664  0.6964959166568492  0.35110833082445175  1.0000
  C   C1052     1.0  0.4768783484559563  0.7127595666459926  0.33917062217704025  1.0000
  C   C1053     1.0  0.47602870471727254  0.7317833568746017  0.3502465661424577  1.0000
  C   C1054     1.0  0.48525392993821526  0.734971646097965  0.3726470051499941  1.0000
  C   C1055     1.0  0.49457541811899397  0.7188926949460357  0.3837447200126409  1.0000
  C   C1056     1.0  0.49458938110269196  0.6991033727932895  0.3735305407292174  1.0000
  H   H649      1.0  0.49395846040897323  0.659214718562671  0.032755222002232555  1.0000
  H   H650      1.0  0.4859575842722931  0.6372533743978803  0.45919902132659873  1.0000
  H   H651      1.0  0.4545396689261906  0.6232283029233369  0.4705833863360983  1.0000
  H   H652      1.0  0.46342980245455795  0.6441179385648207  0.044108200634893145  1.0000
  H   H653      1.0  0.520582239533262  0.6310116795626205  0.45694210498049237  1.0000
  H   H654      1.0  0.545016321053451  0.60409153982054  0.4568985631860337  1.0000
  H   H655      1.0  0.562609290923673  0.6220912109529857  0.029152682783210527  1.0000
  H   H656      1.0  0.5386775007422551  0.6507157502344412  0.0275254896394623  1.0000
  H   H657      1.0  0.4825401869195416  0.6814437437427522  0.4633409345244772  1.0000
  H   H658      1.0  0.4808379015638457  0.6893056312925466  0.41996423603648925  1.0000
  H   H659      1.0  0.5440415921871106  0.6773125527366785  0.413471065937844  1.0000
  H   H660      1.0  0.5457986205345097  0.6685395025629641  0.45554695331638  1.0000
  H   H661      1.0  0.45373345111945174  0.6329123782352786  0.3889515929333204  1.0000
  H   H662      1.0  0.4670229901933862  0.667363868292427  0.3845411720029469  1.0000
  H   H663      1.0  0.5280963918534483  0.6431639536065447  0.38809527097563373  1.0000
  H   H664      1.0  0.5150120463399508  0.609766607695432  0.39436347513624265  1.0000
  H   H665      1.0  0.537976986230472  0.712154810404732  0.38875565485825647  1.0000
  H   H666      1.0  0.5659440479420575  0.7199452640427897  0.36277753173936816  1.0000
  H   H667      1.0  0.5521556038567903  0.6672900374427088  0.31795851130993774  1.0000
  H   H668      1.0  0.523093404943137  0.6604211847071202  0.34216774902894354  1.0000
  H   H669      1.0  0.4844478231847718  0.6813236237327436  0.34151280787062815  1.0000
  H   H670      1.0  0.47031444873468625  0.7099058061821133  0.32122051741146446  1.0000
  H   H671      1.0  0.4867440771365848  0.7499382493934023  0.38137169221464484  1.0000
  H   H672      1.0  0.5031782772785429  0.7221993659582746  0.399684645267376  1.0000
  C   C1057     1.0  0.05030605978388548  0.45292979352114193  0.22729360979842703  1.0000
  C   C1058     1.0  0.0554400167538095  0.43271451028412  0.22804107726996709  1.0000
  C   C1059     1.0  0.04034696846729085  0.41781664790803014  0.23120692857539762  1.0000
  C   C1060     1.0  0.019800824589633156  0.4229424889173147  0.23370876751533384  1.0000
  C   C1061     1.0  0.015334583211182416  0.4437675670541018  0.23420224118586516  1.0000
  C   C1062     1.0  0.030350047999982182  0.45849441181337647  0.23209590687892825  1.0000
  H   H673      1.0  0.07112369997926403  0.42802019851752254  0.2255337956057235  1.0000
  H   H674      1.0  0.044727958912538966  0.40199728082632924  0.23041410506796317  1.0000
  H   H675      1.0  0.9995957324055685  0.44894637246894703  0.23393736193624176  1.0000
  H   H676      1.0  0.025515122008733328  0.4742253230010194  0.23143915147917707  1.0000
  C   C1063     1.0  0.975642547977926  0.42469170601397493  0.2597848596717541  1.0000
  C   C1064     1.0  0.9791056451922013  0.4120754052624518  0.23956151038714987  1.0000
  C   C1065     1.0  0.9619175237053723  0.4047054760332709  0.22724643952109685  1.0000
  C   C1066     1.0  0.9426211672523381  0.41126831836738525  0.2331717520503439  1.0000
  C   C1067     1.0  0.9400451368618891  0.42599115206440896  0.2511254852987913  1.0000
  C   C1068     1.0  0.9566895250388251  0.4317370531359672  0.265361837845332  1.0000
  C   C1069     1.0  0.0020807461298268932  0.40556694826892  0.23132848275159468  1.0000
  C   C1070     1.0  0.0045084709022185105  0.386081791489845  0.24772015412383822  1.0000
  C   C1071     1.0  0.9947239897631805  0.36757575654390295  0.24143017906599998  1.0000
  C   C1072     1.0  0.9967845514625855  0.3507648687021979  0.255940482069343  1.0000
  C   C1073     1.0  0.008111298028959713  0.352036706165896  0.27737030190873874  1.0000
  C   C1074     1.0  0.017238757225547404  0.3704907742141403  0.28381085900574643  1.0000
  C   C1075     1.0  0.015126983994715595  0.3869920137116961  0.2691971442405642  1.0000
  C   C1076     1.0  0.9946526542859816  0.41522705439126373  0.18755265114773584  1.0000
  C   C1077     1.0  0.9934069312799056  0.411634445537332  0.1633613744189442  1.0000
  C   C1078     1.0  0.0005507682673056011  0.3929343194731236  0.15368711338680788  1.0000
  C   C1079     1.0  0.011896022269317191  0.380109504912976  0.16830917366259474  1.0000
  C   C1080     1.0  0.013424084032408688  0.3842929664580778  0.19288833521035545  1.0000
  C   C1081     1.0  0.003286089836595396  0.40083525574941936  0.20339460736493903  1.0000
  C   C1082     1.0  0.9978027448261816  0.3866838158036739  0.1252470646395705  1.0000
  C   C1083     1.0  0.9542211314242943  0.4266492348869666  0.0891365845260123  1.0000
  C   C1084     1.0  0.9721998362701221  0.4213232688135853  0.07764263933379184  1.0000
  C   C1085     1.0  0.9852526788355214  0.4081700376283418  0.08827844832688984  1.0000
  C   C1086     1.0  0.9814569429652886  0.40063226814822567  0.11132221734755268  1.0000
  C   C1087     1.0  0.9620350549968835  0.4044092227702355  0.1213043551513403  1.0000
  C   C1088     1.0  0.9484635807945202  0.41734435751744087  0.11037717898365652  1.0000
  C   C1089     1.0  0.9877396193583972  0.3647846910221989  0.12185280033737564  1.0000
  C   C1090     1.0  0.9770374730977535  0.35495328040018687  0.14056688217155708  1.0000
  C   C1091     1.0  0.9694874344487464  0.33573202523554785  0.13673502283505287  1.0000
  C   C1092     1.0  0.9712954183178603  0.3259101935323219  0.11486198381289682  1.0000
  C   C1093     1.0  0.9798893162607708  0.3359149456501663  0.09573298496235322  1.0000
  C   C1094     1.0  0.987427937651142  0.3555869384363539  0.09891117310954704  1.0000
  C   C1095     1.0  0.03249435307976152  0.37175385881345324  0.10959070532124729  1.0000
  C   C1096     1.0  0.051556571347321604  0.3744707774783484  0.09959496070669134  1.0000
  C   C1097     1.0  0.05887285124736551  0.3937457744863597  0.09486722894920052  1.0000
  C   C1098     1.0  0.048409098360665856  0.41041694576873217  0.10357250363048842  1.0000
  C   C1099     1.0  0.029501004458768756  0.4082644365111932  0.1139379906496557  1.0000
  C   C1100     1.0  0.020595405146429435  0.38887844660695486  0.11550495097773614  1.0000
  H   H677      1.0  0.988682073156912  0.4302148255223242  0.2698629708474943  1.0000
  H   H678      1.0  0.9630698799661174  0.39415608129036045  0.2119269848373974  1.0000
  H   H679      1.0  0.9299181307922384  0.40489301530883215  0.22252578330520553  1.0000
  H   H680      1.0  0.9547166291353876  0.4419205062493871  0.28110219654213164  1.0000
  H   H681      1.0  0.9856953654349477  0.36547958846401757  0.22505846434954999  1.0000
  H   H682      1.0  0.9893092584261638  0.3364547653524564  0.25024739244387534  1.0000
  H   H683      1.0  0.02546294336929087  0.3723218866680477  0.30065609073693417  1.0000
  H   H684      1.0  0.02215721996064207  0.4010070579169945  0.2750752864924811  1.0000
  H   H685      1.0  0.9886016152644101  0.42941261997060604  0.19525954876691579  1.0000
  H   H686      1.0  0.9860780503311213  0.4235999208989616  0.15277781557919654  1.0000
  H   H687      1.0  0.019091079281419513  0.36730692118147795  0.15969007544950622  1.0000
  H   H688      1.0  0.021705046384493467  0.3729862192762222  0.2028104216226189  1.0000
  H   H689      1.0  0.9761373787603315  0.4273737422880276  0.060347838574818596  1.0000
  H   H690      1.0  0.9988094376844656  0.4037747635904984  0.07816368947414694  1.0000
  H   H691      1.0  0.9576174200698313  0.3979166796366277  0.13920874103273456  1.0000
  H   H692      1.0  0.9341875397532776  0.42148607041231595  0.11902929639087619  1.0000
  H   H693      1.0  0.9753552563897228  0.36131988952439753  0.15874539993389722  1.0000
  H   H694      1.0  0.9622110887197343  0.3283143593838306  0.15169344347303274  1.0000
  H   H695      1.0  0.9797942927559381  0.32838400913319565  0.07821521393092301  1.0000
  H   H696      1.0  0.9944828757204779  0.3639621077532966  0.08420765339329382  1.0000
  H   H697      1.0  0.027054519389981897  0.3563601003182327  0.11255626437216806  1.0000
  H   H698      1.0  0.06006487924325911  0.360847833670154  0.09446283453316587  1.0000
  H   H699      1.0  0.053952628173893014  0.425609166338851  0.09946614956475118  1.0000
  H   H700      1.0  0.021217494751281412  0.42176695064890196  0.11999138862426863  1.0000
  C   C1101     1.0  0.0808157759363071  0.4529681870953066  0.4557410771500081  1.0000
  C   C1102     1.0  0.07644821767465489  0.43372422981508946  0.4470254612925363  1.0000
  C   C1103     1.0  0.059070839798779785  0.4232750246378668  0.4551133496132293  1.0000
  C   C1104     1.0  0.044558120926311666  0.43299280063013745  0.46967082289390255  1.0000
  C   C1105     1.0  0.04933824176298981  0.4526588702765474  0.478836370627447  1.0000
  C   C1106     1.0  0.06742161512414187  0.4619971900809524  0.472072878554871  1.0000
  H   H701      1.0  0.08627543947253363  0.42632697372992623  0.43439108393378656  1.0000
  H   H702      1.0  0.057110433840021346  0.40749305566486843  0.4500207739030038  1.0000
  H   H703      1.0  0.03918166582229217  0.46041877007971876  0.49103351580017457  1.0000
  H   H704      1.0  0.07120421297252474  0.47709117404272516  0.4792336895018821  1.0000
  C   C1107     1.0  0.9898474064363274  0.43249134413438156  0.4974885868286684  1.0000
  C   C1108     1.0  0.005041939653839256  0.4366961326973512  0.48050003002405434  1.0000
  C   C1109     1.0  0.002449560576647246  0.45391513039562004  0.465610550560634  1.0000
  C   C1110     1.0  0.9860582093174454  0.4667908231450833  0.46889614180082584  1.0000
  C   C1111     1.0  0.9709230199589756  0.4618731777684983  0.485128159926721  1.0000
  C   C1112     1.0  0.9727664383068053  0.44478152309996444  0.4992701719186013  1.0000
  C   C1113     1.0  0.02356059098212781  0.4215942203731121  0.47613133664670376  1.0000
  C   C1114     1.0  0.03063095448196179  0.4104270777237796  0.0008667043820849152  1.0000
  C   C1115     1.0  0.039822109373041696  0.39116944978075135  0.49801834532791533  1.0000
  C   C1116     1.0  0.052679217791251017  0.3838416791736307  0.015485403347829952  1.0000
  C   C1117     1.0  0.05752902283458748  0.3961216978604782  0.03557273895199395  1.0000
  C   C1118     1.0  0.047148766495542484  0.41441869731556313  0.03886522430964172  1.0000
  C   C1119     1.0  0.033116942391766276  0.42113405206192817  0.022312448297901192  1.0000
  C   C1120     1.0  0.016249340905500897  0.410663930362674  0.43095491065442526  1.0000
  C   C1121     1.0  0.006306911715918462  0.3984941719936492  0.4138556851222287  1.0000
  C   C1122     1.0  0.9928283500399109  0.3830515908069722  0.42060466326331847  1.0000
  C   C1123     1.0  0.9886355462343881  0.3813408709063264  0.44485200005247566  1.0000
  C   C1124     1.0  0.9995839863910537  0.392355044942863  0.4621054361067132  1.0000
  C   C1125     1.0  0.013952430106647823  0.40665666760746544  0.4554507985202838  1.0000
  C   C1126     1.0  0.9798418269778264  0.37110945704228177  0.40054096722506266  1.0000
  C   C1127     1.0  0.933683542975781  0.41897796476542515  0.3905426826724966  1.0000
  C   C1128     1.0  0.9510891947247939  0.41883483404422694  0.37628093074585506  1.0000
  C   C1129     1.0  0.965611491971069  0.40383318175084143  0.379524794433024  1.0000
  C   C1130     1.0  0.9625322832269455  0.3882173057106904  0.39593823670249684  1.0000
  C   C1131     1.0  0.9452682150987229  0.3888497154797544  0.4102489731479044  1.0000
  C   C1132     1.0  0.9305879515273182  0.40357968176527426  0.4068581559044375  1.0000
  C   C1133     1.0  0.9713938682315316  0.34911812032306927  0.40734981533353304  1.0000
  C   C1134     1.0  0.983987987668141  0.33660579897363174  0.420535722088759  1.0000
  C   C1135     1.0  0.9809987313601558  0.31553440030940827  0.42100198213775364  1.0000
  C   C1136     1.0  0.9659132498467006  0.3068324629952528  0.4067982859370569  1.0000
  C   C1137     1.0  0.9522449015237764  0.31921366398078815  0.39500934508737917  1.0000
  C   C1138     1.0  0.9549711966673597  0.34004384480999517  0.3953050664414108  1.0000
  C   C1139     1.0  0.9826136029584399  0.36325425245471915  0.3551250613632616  1.0000
  C   C1140     1.0  0.9916581566785124  0.3535006392775824  0.3359739287672015  1.0000
  C   C1141     1.0  0.011079572846492525  0.34655091773903174  0.337189470529172  1.0000
  C   C1142     1.0  0.02194357459837211  0.3496185477453419  0.3583870674647883  1.0000
  C   C1143     1.0  0.012746316623146294  0.358359008545684  0.37820765515065  1.0000
  C   C1144     1.0  0.9927085666251292  0.3651123464740439  0.3771789802565646  1.0000
  H   H705      1.0  0.9897296428189303  0.4186191594441609  0.008205832156432903  1.0000
  H   H706      1.0  0.013120056601884533  0.45722593061651773  0.45120003083625876  1.0000
  H   H707      1.0  0.9851140639979464  0.48083111419422353  0.45913552287634657  1.0000
  H   H708      1.0  0.9604475495914143  0.44132240224069824  0.01156141683121699  1.0000
  H   H709      1.0  0.03876981303245954  0.3818992193212515  0.48139445105189227  1.0000
  H   H710      1.0  0.059841545842219984  0.3693478938468786  0.01281620063544331  1.0000
  H   H711      1.0  0.05053283633169994  0.4248514630222405  0.0536389551694595  1.0000
  H   H712      1.0  0.02574724649952383  0.435810973201589  0.02472520798334078  1.0000
  H   H713      1.0  0.025346669988512954  0.42297007998888403  0.4242349603763079  1.0000
  H   H714      1.0  0.008970448768335082  0.40172945282449873  0.3945303853483341  1.0000
  H   H715      1.0  0.9771260716784314  0.3710868470426275  0.4506720865784477  1.0000
  H   H716      1.0  0.9968059453780065  0.38985967581960473  0.4811985129768284  1.0000
  H   H717      1.0  0.9524478375881801  0.42987206764507274  0.36181235529553496  1.0000
  H   H718      1.0  0.9793942947191905  0.4047185968015404  0.36868833033712906  1.0000
  H   H719      1.0  0.9444113269005473  0.37786367093299106  0.4250930965754304  1.0000
  H   H720      1.0  0.9168270093503976  0.4031975020225244  0.41786697293673125  1.0000
  H   H721      1.0  0.9981558741732248  0.34226395851931174  0.42904632866398806  1.0000
  H   H722      1.0  0.9920972935899424  0.3054799552093647  0.4299207930360324  1.0000
  H   H723      1.0  0.9409835208898601  0.3120385982593826  0.3836794073209529  1.0000
  H   H724      1.0  0.9458091927807146  0.34963974802649334  0.38445771689690117  1.0000
  H   H725      1.0  0.9668560659999539  0.36824236569365604  0.35337250413630117  1.0000
  H   H726      1.0  0.9828192748835021  0.35180347480226626  0.3197019973297192  1.0000
  H   H727      1.0  0.03687425119170339  0.34453944172439344  0.36037003335409235  1.0000
  H   H728      1.0  0.02162209682487695  0.3588106467380147  0.3951780695409064  1.0000
  C   C1145     1.0  0.8332567960687934  0.5291803107503676  0.12480674824310745  1.0000
  C   C1146     1.0  0.8406995917954433  0.5470690116367334  0.11535582033171528  1.0000
  C   C1147     1.0  0.8585174715127891  0.547028309201504  0.10184897426650044  1.0000
  C   C1148     1.0  0.8692842521526774  0.5290162398862771  0.09771939791038525  1.0000
  C   C1149     1.0  0.8609726417800725  0.5106787805057432  0.1065698119065353  1.0000
  C   C1150     1.0  0.8430838868352949  0.51099474719179  0.11991011060794582  1.0000
  H   H729      1.0  0.8323457405324726  0.5612862414068872  0.11692314350808287  1.0000
  H   H730      1.0  0.8635014392972921  0.5607631119665338  0.09335415159176265  1.0000
  H   H731      1.0  0.8685279776074963  0.49609632039660057  0.10255144855043324  1.0000
  H   H732      1.0  0.837623917880423  0.49649836726091173  0.1261728720442474  1.0000
  C   C1151     1.0  0.9103376351919674  0.5051092103791431  0.10619009117402721  1.0000
  C   C1152     1.0  0.9050753728434292  0.5123115169861874  0.08400881253193268  1.0000
  C   C1153     1.0  0.916425232501735  0.5052642710161305  0.063774940647001  1.0000
  C   C1154     1.0  0.9304998949410437  0.4899028217477705  0.06615068980715073  1.0000
  C   C1155     1.0  0.9345272919374812  0.48192156133583314  0.08840871086197861  1.0000
  C   C1156     1.0  0.9247924839716349  0.48988547131760696  0.10883960936683568  1.0000
  C   C1157     1.0  0.8884708010788038  0.5294729895268732  0.07996650118887837  1.0000
  C   C1158     1.0  0.9025044560196586  0.5492685711334009  0.08339959025779883  1.0000
  C   C1159     1.0  0.9145215346127962  0.5565344030153829  0.06487128674664093  1.0000
  C   C1160     1.0  0.9284213624091266  0.571741561695594  0.0686873621826539  1.0000
  C   C1161     1.0  0.9304225679311713  0.5804781696320943  0.09090728416733047  1.0000
  C   C1162     1.0  0.9196497870670939  0.5730886802307215  0.10999473688899478  1.0000
  C   C1163     1.0  0.9053074854142136  0.5577598509208647  0.10630348126376328  1.0000
  C   C1164     1.0  0.8701213803695494  0.5063668526149835  0.04789252684578001  1.0000
  C   C1165     1.0  0.8615805007337186  0.5022491463612189  0.025731204859479027  1.0000
  C   C1166     1.0  0.8602040565602055  0.5175435901584083  0.008319621379284825  1.0000
  C   C1167     1.0  0.866434060742896  0.5374327758601076  0.015465791397909205  1.0000
  C   C1168     1.0  0.8744922867051576  0.5415184656083984  0.03812211101754753  1.0000
  C   C1169     1.0  0.8776190486446332  0.5259200906194134  0.05434288084654091  1.0000
  C   C1170     1.0  0.856300140865926  0.511585429061665  0.4806451693389165  1.0000
  C   C1171     1.0  0.9166292085218471  0.48360301623299146  0.46946581361165973  1.0000
  C   C1172     1.0  0.8998173602359865  0.4713737628412339  0.47441687848989467  1.0000
  C   C1173     1.0  0.8807262418923633  0.4798870503777876  0.4766375100072855  1.0000
  C   C1174     1.0  0.878198994584834  0.5011309958871328  0.47522784441168686  1.0000
  C   C1175     1.0  0.8957809595023579  0.5130473594245882  0.471682816646179  1.0000
  C   C1176     1.0  0.9146029314414315  0.5042998022406542  0.46759170220850227  1.0000
  C   C1177     1.0  0.8501839715234468  0.5297637536214953  0.46275493454072125  1.0000
  C   C1178     1.0  0.8345266293284698  0.5434332410210052  0.46919730587916475  1.0000
  C   C1179     1.0  0.8276426620998267  0.5574051992967097  0.45214162214142695  1.0000
  C   C1180     1.0  0.836769980706464  0.5588017014200692  0.43001876207356443  1.0000
  C   C1181     1.0  0.853676792301093  0.5469339058639356  0.42496247119205444  1.0000
  C   C1182     1.0  0.8595040145025282  0.5317577705686212  0.4402383840812952  1.0000
  C   C1183     1.0  0.8338117524208467  0.48395990063905003  0.45805786346349514  1.0000
  C   C1184     1.0  0.8165785197118474  0.47158590125271355  0.4551786623049173  1.0000
  C   C1185     1.0  0.8010515347530384  0.4719628699869919  0.4719803522416464  1.0000
  C   C1186     1.0  0.8026646485043526  0.4858352613321711  0.4909028904167986  1.0000
  C   C1187     1.0  0.8196342519476293  0.4985952877248774  0.49383289033557815  1.0000
  C   C1188     1.0  0.8359948775754389  0.4971241758595252  0.47763715703839854  1.0000
  H   H733      1.0  0.90281275897764  0.5117506654434845  0.12206361519221291  1.0000
  H   H734      1.0  0.9139275857208982  0.5111138838781663  0.045975962193025376  1.0000
  H   H735      1.0  0.9390521890488807  0.4849650049298111  0.050304197986358136  1.0000
  H   H736      1.0  0.9279562040914227  0.4842856845986506  0.12688133332491824  1.0000
  H   H737      1.0  0.9138514116322519  0.5501958505459122  0.04659933555035829  1.0000
  H   H738      1.0  0.9384169272502454  0.5763963596072026  0.05403282698516665  1.0000
  H   H739      1.0  0.9210645013058155  0.5799555558971453  0.12753500451422864  1.0000
  H   H740      1.0  0.8971448999446662  0.5523294829596253  0.12222798546629429  1.0000
  H   H741      1.0  0.872174282003318  0.49398600901643996  0.06017675560742484  1.0000
  H   H742      1.0  0.8587020940745994  0.4868034389214221  0.020656045867036954  1.0000
  H   H743      1.0  0.8661128089018318  0.5495775784762497  0.002450537155518129  1.0000
  H   H744      1.0  0.8786722468397454  0.5571005467190897  0.04266733008659919  1.0000
  H   H745      1.0  0.9006864921493596  0.45452260283507334  0.4742826246236472  1.0000
  H   H746      1.0  0.868117453191794  0.46949101757975026  0.4797507483110785  1.0000
  H   H747      1.0  0.8940464003838388  0.5297667183388396  0.47304531196444743  1.0000
  H   H748      1.0  0.9284558093850999  0.5135067581227171  0.4643133679340536  1.0000
  H   H749      1.0  0.82789163785457  0.5429841435831466  0.4869460298453694  1.0000
  H   H750      1.0  0.8140182641729768  0.5658560603275555  0.45641053223980976  1.0000
  H   H751      1.0  0.8613045890554525  0.5485115098720069  0.40757840975444093  1.0000
  H   H752      1.0  0.8715985271503794  0.5221907359614092  0.4349027000186756  1.0000
  H   H753      1.0  0.84598602623422  0.4827657741627887  0.44475221677350796  1.0000
  H   H754      1.0  0.8154984554231035  0.4625377091788726  0.4383261736079864  1.0000
  H   H755      1.0  0.790529033124925  0.4875079734358284  0.0037967043008644286  1.0000
  H   H756      1.0  0.8191466788685516  0.509841434770569  0.008231412960677356  1.0000
  C   C1189     1.0  0.8284401826149194  0.551204096145936  0.37326384723815825  1.0000
  C   C1190     1.0  0.840598969554164  0.5625657127075758  0.3582618848057197  1.0000
  C   C1191     1.0  0.8569509641140185  0.5537705903939314  0.346814021345968  1.0000
  C   C1192     1.0  0.8611471300317382  0.5330241557381694  0.34878065906235006  1.0000
  C   C1193     1.0  0.8481047054702464  0.5214184449125469  0.3630387825061201  1.0000
  C   C1194     1.0  0.8311877533138953  0.530191473711267  0.37433062120239496  1.0000
  H   H757      1.0  0.8386642534087266  0.5790359158926494  0.3566236247892132  1.0000
  H   H758      1.0  0.865863324377087  0.5632522161945036  0.3343120836120299  1.0000
  H   H759      1.0  0.8507009118552522  0.5051269390188516  0.36525397129920356  1.0000
  H   H760      1.0  0.8217682535336858  0.5208996255461366  0.3857929985936329  1.0000
  C   C1195     1.0  0.8938045981729479  0.505978976019081  0.3727159463245536  1.0000
  C   C1196     1.0  0.890522583033684  0.5041559948789439  0.34771025661524174  1.0000
  C   C1197     1.0  0.8983732831073573  0.48720972235219884  0.33567276468886253  1.0000
  C   C1198     1.0  0.9078386602702173  0.47187408449611096  0.348318027496227  1.0000
  C   C1199     1.0  0.9104329417978501  0.4734402682749116  0.3731368503376538  1.0000
  C   C1200     1.0  0.9035650431638356  0.4904844995101405  0.38512172926239546  1.0000
  C   C1201     1.0  0.8791795080897005  0.5220637482508049  0.33350293193167346  1.0000
  C   C1202     1.0  0.8986266288965471  0.5358252846075894  0.3266868268574599  1.0000
  C   C1203     1.0  0.9096176913790361  0.5325354489562744  0.3057051246527011  1.0000
  C   C1204     1.0  0.9253525538134351  0.5452269687550393  0.29886906292269405  1.0000
  C   C1205     1.0  0.9314320953681984  0.5613034969319428  0.31380389842200884  1.0000
  C   C1206     1.0  0.9221913612398637  0.5636696056106214  0.33615898139365075  1.0000
  C   C1207     1.0  0.9061200636617949  0.5508650605327671  0.3424888697630761  1.0000
  C   C1208     1.0  0.8541844046950358  0.49674764165239776  0.31164495111343443  1.0000
  C   C1209     1.0  0.8425480054279215  0.4901477020037245  0.29272059869684636  1.0000
  C   C1210     1.0  0.8414130442684058  0.5015801071196244  0.27127263644309285  1.0000
  C   C1211     1.0  0.851264430569807  0.5203797214160691  0.27106218443654273  1.0000
  C   C1212     1.0  0.8624123506804467  0.5273746489061678  0.29048363900653357  1.0000
  C   C1213     1.0  0.8653634525920799  0.5150766306781039  0.3108122142944128  1.0000
  C   C1214     1.0  0.831214650259419  0.490409760022184  0.24789613554310858  1.0000
  C   C1215     1.0  0.8858975539748085  0.4522940436718538  0.23765837112102  1.0000
  C   C1216     1.0  0.8693567801665614  0.4438350105058167  0.2492713305514274  1.0000
  C   C1217     1.0  0.8519831872004836  0.45523038062679116  0.2518130828029507  1.0000
  C   C1218     1.0  0.8500384799463838  0.4746561240259759  0.24202887873980636  1.0000
  C   C1219     1.0  0.8669664092529266  0.4823638723618376  0.2295505261445334  1.0000
  C   C1220     1.0  0.8844669092659198  0.47117433574763173  0.22765645808558238  1.0000
  C   C1221     1.0  0.825288682557131  0.5032952499261998  0.22442166560559232  1.0000
  C   C1222     1.0  0.8188197088336566  0.5233390330460438  0.2268037646107673  1.0000
  C   C1223     1.0  0.8140716835598316  0.5345689828621794  0.2062520376262875  1.0000
  C   C1224     1.0  0.8156487567207538  0.5259097579133953  0.1837046450624532  1.0000
  C   C1225     1.0  0.8202544633286736  0.5053940600870092  0.18130458506706407  1.0000
  C   C1226     1.0  0.824067798337634  0.4939464085999546  0.2013608427154332  1.0000
  C   C1227     1.0  0.8023289952026919  0.4616723850081686  0.24540336781035124  1.0000
  C   C1228     1.0  0.7843361349303803  0.45343000644747256  0.2543893056417538  1.0000
  C   C1229     1.0  0.7732543398513645  0.46335825798097613  0.2724047230990176  1.0000
  C   C1230     1.0  0.7794641393630467  0.4828475810468306  0.279619961289102  1.0000
  C   C1231     1.0  0.7968930182846046  0.49147086156612313  0.2701786488573194  1.0000
  C   C1232     1.0  0.8096910094199702  0.48021350780607064  0.2547086121344505  1.0000
  H   H761      1.0  0.8885714722626644  0.5194331331456099  0.3827051596699408  1.0000
  H   H762      1.0  0.896522275077024  0.48457029567933046  0.31632387977630283  1.0000
  H   H763      1.0  0.9129817941303014  0.45815850366083244  0.33907809586381565  1.0000
  H   H764      1.0  0.9064584992045286  0.4921840116645146  0.4042637906512767  1.0000
  H   H765      1.0  0.9059423010387381  0.5204409842648368  0.29291835101334607  1.0000
  H   H766      1.0  0.9334902039411683  0.5421243183686328  0.282034716640121  1.0000
  H   H767      1.0  0.9266231243521245  0.5751861645101648  0.3490727519335101  1.0000
  H   H768      1.0  0.898891925903672  0.5537441661735076  0.3599055875465335  1.0000
  H   H769      1.0  0.8551763791574257  0.48736114786437057  0.32715671538932617  1.0000
  H   H770      1.0  0.8345772106373066  0.47550049772039127  0.29490494538552164  1.0000
  H   H771      1.0  0.8512102930361312  0.5294150209077663  0.2549843768326886  1.0000
  H   H772      1.0  0.8693478099170352  0.5425818306429818  0.29032217151874945  1.0000
  H   H773      1.0  0.8697446916391266  0.4282276984396288  0.25638678546254406  1.0000
  H   H774      1.0  0.8406585551506949  0.44952404380552585  0.26445653136887937  1.0000
  H   H775      1.0  0.8668067528903827  0.497765672210487  0.2223969721632654  1.0000
  H   H776      1.0  0.8975187082839542  0.4775847413420699  0.21826231593113002  1.0000
  H   H777      1.0  0.8173979657016699  0.5310064234482701  0.24426583843011918  1.0000
  H   H778      1.0  0.809809691889556  0.5506011112275743  0.2089207867783152  1.0000
  H   H779      1.0  0.8205844663095511  0.49728110695117766  0.16406983569961503  1.0000
  H   H780      1.0  0.8278766028586312  0.4778686447848727  0.19955748672827103  1.0000
  H   H781      1.0  0.8107324977527064  0.4527131703970455  0.23191266849391481  1.0000
  H   H782      1.0  0.7794779183862991  0.4380186888245779  0.24806304575520002  1.0000
  H   H783      1.0  0.7707024481501923  0.49249273592042625  0.2917064377342472  1.0000
  H   H784      1.0  0.8007782506030393  0.506792429930898  0.27636158367044683  1.0000
  C   C1233     1.0  0.09326977721255948  0.4973967391904429  0.22469743030383038  1.0000
  C   C1234     1.0  0.11412575088898289  0.4969182673915988  0.22769274291429792  1.0000
  C   C1235     1.0  0.1262408797071393  0.5126661736124593  0.2200166873995262  1.0000
  C   C1236     1.0  0.11801842070878672  0.5298812907055965  0.209280006582599  1.0000
  C   C1237     1.0  0.09676186579532627  0.5300912803701274  0.20544470018736682  1.0000
  C   C1238     1.0  0.08459802397598143  0.5141948455839149  0.2137811395847613  1.0000
  H   H785      1.0  0.12089361635862372  0.48424521523874314  0.2371013990002365  1.0000
  H   H786      1.0  0.14275371671506065  0.5112536337851796  0.22125944278303333  1.0000
  H   H787      1.0  0.08980832954738507  0.542732428646811  0.1959544032368183  1.0000
  H   H788      1.0  0.06842800782052476  0.5148903842375824  0.21088198177038994  1.0000
  C   C1239     1.0  0.1250516472476214  0.5770074878611612  0.16983821634466742  1.0000
  C   C1240     1.0  0.12240500887224565  0.5680256974424756  0.19196851480241664  1.0000
  C   C1241     1.0  0.11030100598158452  0.5784034639843015  0.20888631619103545  1.0000
  C   C1242     1.0  0.10049166884005288  0.596200729263688  0.20326035349869154  1.0000
  C   C1243     1.0  0.10304585299936524  0.6044699655555807  0.18074761294628056  1.0000
  C   C1244     1.0  0.11527296539598388  0.594787066227628  0.16415673786438875  1.0000
  C   C1245     1.0  0.13365996139920694  0.5473996122980169  0.2001471151948985  1.0000
  C   C1246     1.0  0.14396663008987517  0.5353538137294018  0.17759609414819266  1.0000
  C   C1247     1.0  0.1639267734278254  0.5279187121622211  0.17929277273893113  1.0000
  C   C1248     1.0  0.17136775277615074  0.5147084010013694  0.16230403451017344  1.0000
  C   C1249     1.0  0.15929896781189898  0.5075261845436125  0.14352590995330908  1.0000
  C   C1250     1.0  0.13946118066731059  0.5139858218000172  0.14220024373618695  1.0000
  C   C1251     1.0  0.13255686594181978  0.5286284055568744  0.1579230042910596  1.0000
  C   C1252     1.0  0.14869102041976145  0.550735017336085  0.24495343593427857  1.0000
  C   C1253     1.0  0.162336991731327  0.5580847319714449  0.26123443857893974  1.0000
  C   C1254     1.0  0.17802815106692235  0.571267539469067  0.25389764621265826  1.0000
  C   C1255     1.0  0.17910210946262334  0.5768570037476233  0.2296884084936524  1.0000
  C   C1256     1.0  0.16548837262935295  0.5691096474766545  0.21341103433186281  1.0000
  C   C1257     1.0  0.15011924963486603  0.5554501557352357  0.22048476168995665  1.0000
  C   C1258     1.0  0.19123819267390912  0.5834885630841257  0.27477230817270637  1.0000
  C   C1259     1.0  0.13968673976547383  0.6236605881123143  0.28922636969154025  1.0000
  C   C1260     1.0  0.1439831046354058  0.6083400935317294  0.3055962701665545  1.0000
  C   C1261     1.0  0.1615117818845429  0.5972338323883714  0.30265175631628866  1.0000
  C   C1262     1.0  0.17449088617560046  0.6000015225109031  0.28293458039226627  1.0000
  C   C1263     1.0  0.16952884979698643  0.6161069261796803  0.26764233933010345  1.0000
  C   C1264     1.0  0.1524763661527193  0.6280503744463747  0.2713034785475011  1.0000
  C   C1265     1.0  0.21180962996437552  0.5938391191860197  0.2655142341259372  1.0000
  C   C1266     1.0  0.22458677863247828  0.5841749979661546  0.249412841383418  1.0000
  C   C1267     1.0  0.24374948960309978  0.5914985320694399  0.2439265752816289  1.0000
  C   C1268     1.0  0.25148939363555556  0.6085078583991058  0.25665529319503905  1.0000
  C   C1269     1.0  0.23905845919412982  0.6190022267618126  0.27236118130455894  1.0000
  C   C1270     1.0  0.21936244120012696  0.6119113563727033  0.2764359675693137  1.0000
  C   C1271     1.0  0.2063882118104993  0.5774114874132195  0.3176682326802134  1.0000
  C   C1272     1.0  0.21786065656535686  0.5662892086324572  0.3337551114912465  1.0000
  C   C1273     1.0  0.22193929920706026  0.5459958147678894  0.3288058608544473  1.0000
  C   C1274     1.0  0.21663609704176703  0.5376450790384553  0.3063909079154247  1.0000
  C   C1275     1.0  0.206169418020062  0.5489332478235276  0.2899085244713923  1.0000
  C   C1276     1.0  0.20089811602198673  0.5693645098530616  0.2950264995617188  1.0000
  H   H789      1.0  0.13464978282521808  0.5703432425032215  0.15551133315048146  1.0000
  H   H790      1.0  0.1082720156176088  0.5729120307168952  0.2273135664542206  1.0000
  H   H791      1.0  0.09117662386311745  0.604284195521545  0.21673472464220597  1.0000
  H   H792      1.0  0.1173166222319709  0.6013439146257257  0.14621933278886334  1.0000
  H   H793      1.0  0.17310878240250036  0.5314628555071788  0.1947715178206918  1.0000
  H   H794      1.0  0.18663613939782145  0.5088523411194226  0.16451559482038539  1.0000
  H   H795      1.0  0.1284894784159708  0.5079587594721447  0.1287360323447129  1.0000
  H   H796      1.0  0.11690782281151442  0.5327654092018947  0.15626932322234902  1.0000
  H   H797      1.0  0.13626181604807652  0.5418268541406762  0.25102207353695205  1.0000
  H   H798      1.0  0.16115763135724243  0.5542456770643414  0.280010023197794  1.0000
  H   H799      1.0  0.19047503203601843  0.5876833670823051  0.2228505325222096  1.0000
  H   H800      1.0  0.16620750268220302  0.5749518698650148  0.1950509110018014  1.0000
  H   H801      1.0  0.13339697639914508  0.6044650585875523  0.319533272876192  1.0000
  H   H802      1.0  0.1646350275465111  0.5849274559166652  0.3147382327614338  1.0000
  H   H803      1.0  0.17792575626866355  0.6185847843434709  0.25108194350433266  1.0000
  H   H804      1.0  0.14902030979373068  0.6395719968856652  0.25826815383144464  1.0000
  H   H805      1.0  0.2197767895463211  0.5693867070902872  0.24240624095844793  1.0000
  H   H806      1.0  0.2535917415908919  0.5821845684626024  0.23252588209920738  1.0000
  H   H807      1.0  0.2450189938394668  0.6311913070265986  0.28390519956040683  1.0000
  H   H808      1.0  0.21081505709216058  0.6196096314079744  0.2901570755480937  1.0000
  H   H809      1.0  0.20439079013222652  0.5933199010754835  0.3229984740185257  1.0000
  H   H810      1.0  0.22310960215397774  0.5732094845104824  0.350317321558453  1.0000
  H   H811      1.0  0.22132028908381543  0.5218855716321031  0.302535644864399  1.0000
  H   H812      1.0  0.20204115855440344  0.541771039849449  0.2728836828380627  1.0000
  C   C1277     1.0  0.12910464552177756  0.48798481769611335  0.4583100430230681  1.0000
  C   C1278     1.0  0.14975380895013835  0.4859719604576059  0.4520091825166152  1.0000
  C   C1279     1.0  0.16098067490461776  0.5029474061699234  0.4451948916838375  1.0000
  C   C1280     1.0  0.15198365072757147  0.5222828683762594  0.4435366750115375  1.0000
  C   C1281     1.0  0.13124022937682484  0.5237092565761412  0.4480269225650851  1.0000
  C   C1282     1.0  0.11988638550052737  0.5071753629507574  0.4559479006736867  1.0000
  H   H813      1.0  0.1567756028064731  0.4710164820026534  0.45407741775340077  1.0000
  H   H814      1.0  0.1773537145185762  0.5020047626911872  0.4416208360553571  1.0000
  H   H815      1.0  0.12393020931364203  0.5387322692515424  0.446873065011931  1.0000
  H   H816      1.0  0.10361058875362461  0.5095055442115491  0.4603601358454959  1.0000
  C   C1283     1.0  0.14152418696309346  0.5611017133575127  0.411658638743503  1.0000
  C   C1284     1.0  0.1563305800495567  0.5623185555164479  0.43020018621714207  1.0000
  C   C1285     1.0  0.16333817701385916  0.582048988124034  0.43699633463556203  1.0000
  C   C1286     1.0  0.15450357662825576  0.5994301105888724  0.42774551755453605  1.0000
  C   C1287     1.0  0.13837061439497103  0.5974909285925177  0.41182373471415873  1.0000
  C   C1288     1.0  0.13255907291830304  0.5783475700725595  0.4033729981063103  1.0000
  C   C1289     1.0  0.1657935092604752  0.5422898559788142  0.44242273076997046  1.0000
  C   C1290     1.0  0.18560737287069642  0.5396647759731044  0.42498242784784795  1.0000
  C   C1291     1.0  0.20431985057337929  0.5488035075665348  0.43033444008338956  1.0000
  C   C1292     1.0  0.22007345434173045  0.5477476031587495  0.4138302857421278  1.0000
  C   C1293     1.0  0.2175821840555967  0.5388425381311066  0.391108726000459  1.0000
  C   C1294     1.0  0.19901053721483186  0.5301573825327957  0.3854355930307849  1.0000
  C   C1295     1.0  0.1833272369755704  0.5301766312915168  0.4023461374536606  1.0000
  C   C1296     1.0  0.155151113120854  0.5562109122910139  0.4848197388826389  1.0000
  C   C1297     1.0  0.15851602194125597  0.5611114825460413  0.008502097782895257  1.0000
  C   C1298     1.0  0.1765551844663157  0.5561207998905722  0.020124835974641504  1.0000
  C   C1299     1.0  0.19052004571710604  0.5444428557943962  0.006998840435010534  1.0000
  C   C1300     1.0  0.18746419636491113  0.5396004703936169  0.48294925596235305  1.0000
  C   C1301     1.0  0.17005087183367795  0.5464669187273902  0.4708464513442859  1.0000
  C   C1302     1.0  0.18050439266480836  0.5631188732750816  0.04786077762065391  1.0000
  C   C1303     1.0  0.13972147144337982  0.614824363152252  0.0663299368610055  1.0000
  C   C1304     1.0  0.1427484288448711  0.5999347043698313  0.08287581875529006  1.0000
  C   C1305     1.0  0.15594135319596622  0.5837736750863549  0.0775591842277461  1.0000
  C   C1306     1.0  0.16758717052449537  0.5829317078389794  0.05634906902622291  1.0000
  C   C1307     1.0  0.16696657806116852  0.6003625582475282  0.04244726260043947  1.0000
  C   C1308     1.0  0.15235708589671504  0.6158910991156153  0.04643841233500489  1.0000
  C   C1309     1.0  0.20296092948919275  0.5710772162184886  0.0546436820765927  1.0000
  C   C1310     1.0  0.2161745979463381  0.5795722610359683  0.03780643300772237  1.0000
  C   C1311     1.0  0.23620488620132357  0.5845643767826052  0.04279487125953431  1.0000
  C   C1312     1.0  0.24351000385466678  0.582676250133438  0.06644622973703879  1.0000
  C   C1313     1.0  0.23044682139590342  0.5756966867225556  0.08412202119752515  1.0000
  C   C1314     1.0  0.21065893619638615  0.5701454543074673  0.07799532786890685  1.0000
  C   C1315     1.0  0.18982625224473434  0.5276791892177548  0.0664224631742301  1.0000
  C   C1316     1.0  0.1844830665336325  0.509870846389528  0.07893183929805483  1.0000
  C   C1317     1.0  0.1645989645739699  0.5065100679819715  0.08568535304273404  1.0000
  C   C1318     1.0  0.149398030522102  0.5197357884360468  0.07879794828009452  1.0000
  C   C1319     1.0  0.15435024811612078  0.5368608064841162  0.06613581302737738  1.0000
  C   C1320     1.0  0.17465028440312322  0.5422781493315401  0.06139429303497466  1.0000
  H   H817      1.0  0.13722268557024014  0.5460943368240465  0.404285561548506  1.0000
  H   H818      1.0  0.17573304659303515  0.5841306219738469  0.44980669341358215  1.0000
  H   H819      1.0  0.1600946388890311  0.614698687683359  0.4325967991538033  1.0000
  H   H820      1.0  0.12023986846367396  0.5767082077001809  0.3905535681211113  1.0000
  H   H821      1.0  0.20649643796315187  0.5586951155608477  0.44638684830714287  1.0000
  H   H822      1.0  0.23464899644507897  0.55444409710231  0.4192530533936648  1.0000
  H   H823      1.0  0.19580844248027318  0.5234325126548625  0.36767598361596565  1.0000
  H   H824      1.0  0.16868655231275329  0.5236318306114213  0.3970884657727794  1.0000
  H   H825      1.0  0.140541481165558  0.5600206930076513  0.47646152858801516  1.0000
  H   H826      1.0  0.145849859559878  0.5679245286371744  0.01891219699896828  1.0000
  H   H827      1.0  0.20417046391221144  0.5393611259957928  0.015584261363665431  1.0000
  H   H828      1.0  0.19776365646673627  0.5293922566344849  0.4736385689139464  1.0000
  H   H829      1.0  0.13410775702972277  0.5995766277929079  0.09957699971647713  1.0000
  H   H830      1.0  0.15701251896325316  0.5717127782288379  0.09072876281005002  1.0000
  H   H831      1.0  0.17678262122693614  0.6016879181825818  0.026743551580642486  1.0000
  H   H832      1.0  0.15061842909353976  0.6270670287275341  0.03278660837907149  1.0000
  H   H833      1.0  0.21216173842212918  0.5817406260055381  0.019047720834220808  1.0000
  H   H834      1.0  0.24618756580740267  0.5897904719466274  0.028330831412803625  1.0000
  H   H835      1.0  0.23567696851857078  0.573234736542573  0.10224139468905898  1.0000
  H   H836      1.0  0.20080890339510937  0.5648494294425631  0.0919482959031792  1.0000
  H   H837      1.0  0.20522710691594898  0.5293425655066439  0.060232452819503186  1.0000
  H   H838      1.0  0.1956715064985198  0.4983024945231502  0.08385460200989166  1.0000
  H   H839      1.0  0.1340180953256591  0.5185364606291246  0.08452568991698552  1.0000
  H   H840      1.0  0.14145078337976047  0.5464764497869284  0.06064954692558828  1.0000
  C   C1321     1.0  0.9960584881346397  0.6964736316674804  0.022880124443155757  1.0000
  C   C1322     1.0  0.9837093566600814  0.6863035056728704  0.03916675123626783  1.0000
  C   C1323     1.0  0.991625321743769  0.675352786381151  0.05774639778005821  1.0000
  C   C1324     1.0  0.012648914803400801  0.6734471676411725  0.06005610855194568  1.0000
  C   C1325     1.0  0.02497160004836614  0.6848568587365863  0.044608024150449656  1.0000
  C   C1326     1.0  0.016776942248295963  0.6964898026497252  0.026565755919936363  1.0000
  H   H841      1.0  0.966970698307952  0.6865680548361234  0.03643105657525996  1.0000
  H   H842      1.0  0.9811964918590066  0.6670650985199974  0.06926102532464652  1.0000
  H   H843      1.0  0.041499450283208936  0.685670389745983  0.046103321941816905  1.0000
  H   H844      1.0  0.027716198424555534  0.7038514408078362  0.014492577864515447  1.0000
  C   C1327     1.0  0.050332153694848565  0.6442547649981818  0.05180530135031987  1.0000
  C   C1328     1.0  0.04363642782333093  0.6495714069116602  0.07488027532367807  1.0000
  C   C1329     1.0  0.05670781929619105  0.6447596397106254  0.09341656149715338  1.0000
  C   C1330     1.0  0.07545522417380905  0.6357569269528384  0.0891462000056219  1.0000
  C   C1331     1.0  0.08192603285047499  0.6319684817468803  0.06623668485120655  1.0000
  C   C1332     1.0  0.06895835290213033  0.6358791258941767  0.047512987537415494  1.0000
  C   C1333     1.0  0.022076226739837588  0.6593166454828359  0.0801702405021161  1.0000
  C   C1334     1.0  0.0097120118118641  0.6386051077819687  0.08502061498066542  1.0000
  C   C1335     1.0  0.008759561307194241  0.6286655670184574  0.1072283815477223  1.0000
  C   C1336     1.0  0.9958119702751552  0.6125104920475665  0.1111417003246929  1.0000
  C   C1337     1.0  0.9846321085274431  0.6046226247516429  0.09238824945135508  1.0000
  C   C1338     1.0  0.987326772972948  0.6120479769722075  0.06946966308976085  1.0000
  C   C1339     1.0  0.9998588214239748  0.6285279691079072  0.0655316706292637  1.0000
  C   C1340     1.0  0.03868379095245253  0.6909206100090449  0.10147016065471025  1.0000
  C   C1341     1.0  0.04255506571833077  0.7029870031702988  0.12113744493924884  1.0000
  C   C1342     1.0  0.031503268829342054  0.7005428450246908  0.1425973811864785  1.0000
  C   C1343     1.0  0.015266308720990334  0.6871046209383944  0.1423617112239711  1.0000
  C   C1344     1.0  0.01048863781189957  0.6760351823621418  0.12184844615792977  1.0000
  C   C1345     1.0  0.023315140308234977  0.6758070122917401  0.10218315753897053  1.0000
  C   C1346     1.0  0.04021181530908689  0.7107115931002556  0.16728648576524732  1.0000
  C   C1347     1.0  0.08158246807625469  0.6602112149698114  0.18425798870036514  1.0000
  C   C1348     1.0  0.08765628867336837  0.6758669089802551  0.16946339406403593  1.0000
  C   C1349     1.0  0.07473217400417546  0.6910381634225311  0.1632969688479741  1.0000
  C   C1350     1.0  0.05569479186495843  0.6926509100541165  0.1740955152978613  1.0000
  C   C1351     1.0  0.04901725498233444  0.6765317664553524  0.18869562325227524  1.0000
  C   C1352     1.0  0.061747078004841  0.6599872933451932  0.19323848380746037  1.0000
  C   C1353     1.0  0.025507366293925318  0.7156970506587604  0.1897932393209202  1.0000
  C   C1354     1.0  0.004524465487258489  0.7176891826138029  0.18773226104987775  1.0000
  C   C1355     1.0  0.9925627964210809  0.7201969881706235  0.20797193850740392  1.0000
  C   C1356     1.0  0.0016090360529705807  0.7216792946143946  0.23040140537791273  1.0000
  C   C1357     1.0  0.022879369428039708  0.7225764038626228  0.2322737025396344  1.0000
  C   C1358     1.0  0.0348023495610864  0.71906620088027  0.21234970309193338  1.0000
  C   C1359     1.0  0.06814560432563804  0.7399585826716064  0.16739298173752745  1.0000
  C   C1360     1.0  0.07561837863784364  0.7581181166243336  0.15907758754078793  1.0000
  C   C1361     1.0  0.06422521141997478  0.7704092256518977  0.14431038795013898  1.0000
  C   C1362     1.0  0.04408358917626151  0.7647197628118615  0.13974303513557085  1.0000
  C   C1363     1.0  0.03623795458099718  0.7469107557380801  0.1489249110420373  1.0000
  C   C1364     1.0  0.04855070691955296  0.7330664755367398  0.16174742523767713  1.0000
  H   H845      1.0  0.04076530836460688  0.6475031812229621  0.03640329868129258  1.0000
  H   H846      1.0  0.05198301707598958  0.6463054509764357  0.11247516777998884  1.0000
  H   H847      1.0  0.0841614246634517  0.6306631589717506  0.1044115902945352  1.0000
  H   H848      1.0  0.07273055695156852  0.6324871738507672  0.028491936052300607  1.0000
  H   H849      1.0  0.017786275721918394  0.6345731711435777  0.12215577865715037  1.0000
  H   H850      1.0  0.993800486987669  0.6067075798844083  0.12944358650466584  1.0000
  H   H851      1.0  0.9783418115541271  0.6063731608922239  0.054193568776376475  1.0000
  H   H852      1.0  0.00040877221555413163  0.6347164219429658  0.04782884697138424  1.0000
  H   H853      1.0  0.04864161730177565  0.6928430603018224  0.08604275860558208  1.0000
  H   H854      1.0  0.05557787985295113  0.7134079480532189  0.11991573475639672  1.0000
  H   H855      1.0  0.007776172649602619  0.6832641840152354  0.15927679125043623  1.0000
  H   H856      1.0  0.997620932085687  0.6655324722154783  0.1220115464630061  1.0000
  H   H857      1.0  0.10296080663866938  0.6753754573821847  0.16187605495547372  1.0000
  H   H858      1.0  0.07989333480025301  0.7021075459838367  0.14939679523948285  1.0000
  H   H859      1.0  0.032917099052813585  0.6741520944656308  0.19410206273089015  1.0000
  H   H860      1.0  0.05586445263524722  0.6476147700550302  0.20381369713660347  1.0000
  H   H861      1.0  0.9973213212112784  0.7169927583329664  0.17055066895649698  1.0000
  H   H862      1.0  0.9759741275187007  0.720477437811793  0.20585834723472393  1.0000
  H   H863      1.0  0.02991697448417461  0.724250002508984  0.24956523766402325  1.0000
  H   H864      1.0  0.051559330348592274  0.7188118391877082  0.21305000028614324  1.0000
  H   H865      1.0  0.07871008280534167  0.730847914498585  0.17739707186268794  1.0000
  H   H866      1.0  0.09104178851316629  0.7620923898207024  0.16426232671595095  1.0000
  H   H867      1.0  0.03404946371527081  0.7729658064981728  0.12787535620758037  1.0000
  H   H868      1.0  0.020278226319306977  0.7430977725633805  0.14533616005792718  1.0000
  C   C1365     1.0  0.004162496768246315  0.6982043649016366  0.2838525865587693  1.0000
  C   C1366     1.0  0.99049037459956  0.6826833415392569  0.28897600437340304  1.0000
  C   C1367     1.0  0.9976967760796905  0.6639388338113951  0.2958283942763321  1.0000
  C   C1368     1.0  0.018618951130793086  0.6600610995507208  0.298324790491961  1.0000
  C   C1369     1.0  0.03177429986211434  0.6764699510629356  0.2935497070329964  1.0000
  C   C1370     1.0  0.024672279010133826  0.6956065666126322  0.2873268589082819  1.0000
  H   H869      1.0  0.9739577839565491  0.684327838406728  0.28708737903875936  1.0000
  H   H870      1.0  0.9863373087050828  0.6518874790508862  0.30047648083479234  1.0000
  H   H871      1.0  0.04785361089541541  0.6750329013296322  0.29585742213930455  1.0000
  H   H872      1.0  0.03539686359831589  0.7079095555371575  0.28340991164843976  1.0000
  C   C1371     1.0  0.05256053704763939  0.6358153303937594  0.27182960856387633  1.0000
  C   C1372     1.0  0.045970780489515646  0.6284522799973173  0.2939778680118397  1.0000
  C   C1373     1.0  0.05779124766156626  0.6136064870626579  0.3047254342773816  1.0000
  C   C1374     1.0  0.07644398250247977  0.608514501260457  0.29519703825668175  1.0000
  C   C1375     1.0  0.08382132561397448  0.6184382365157233  0.274832178140087  1.0000
  C   C1376     1.0  0.07160617570205634  0.6313955995300616  0.2625497636198779  1.0000
  C   C1377     1.0  0.026497372399585536  0.638165026518584  0.3080364248976743  1.0000
  C   C1378     1.0  0.01068872722187475  0.6188563788326046  0.3038890689754885  1.0000
  C   C1379     1.0  0.007237978893895657  0.6045611606231435  0.3215634090428262  1.0000
  C   C1380     1.0  0.9942441496642218  0.5884274558873911  0.3176192481614475  1.0000
  C   C1381     1.0  0.9846227258536847  0.5858569930900808  0.2956651125471122  1.0000
  C   C1382     1.0  0.9881356339293383  0.5997627196352896  0.27767690871138506  1.0000
  C   C1383     1.0  0.0010580705742317953  0.6161613595001659  0.2816065556612776  1.0000
  C   C1384     1.0  0.05236948862647057  0.6539514657345593  0.3398019781966906  1.0000
  C   C1385     1.0  0.056176066731086056  0.663561170538401  0.3614857918370951  1.0000
  C   C1386     1.0  0.04173127340259425  0.6650809945618363  0.37962457771199176  1.0000
  C   C1387     1.0  0.023019876514207966  0.6549894414825035  0.3749583487391738  1.0000
  C   C1388     1.0  0.018661093359186774  0.6463058276374962  0.3527828756696737  1.0000
  C   C1389     1.0  0.033158395567698624  0.6450822213703573  0.33466404645057063  1.0000
  C   C1390     1.0  0.04591772233542581  0.6781825264967477  0.40403701047180457  1.0000
  C   C1391     1.0  0.09821512935617646  0.640988473988609  0.4232842978639608  1.0000
  C   C1392     1.0  0.10138252667006653  0.6614690727171888  0.4179867128714926  1.0000
  C   C1393     1.0  0.08509684598114456  0.6735532047742542  0.41290139412701016  1.0000
  C   C1394     1.0  0.0652247072136755  0.6656764512774783  0.41324972848267927  1.0000
  C   C1395     1.0  0.06232213404594767  0.6452242292105028  0.4196485580266641  1.0000
  C   C1396     1.0  0.07888204671229064  0.6328139241800069  0.4241950470647208  1.0000
  C   C1397     1.0  0.028513822247414347  0.6803134936465003  0.4243383721381472  1.0000
  C   C1398     1.0  0.009567611714390134  0.687481380766916  0.4180356973902585  1.0000
  C   C1399     1.0  0.9950333676713564  0.6913562874972771  0.435338117963262  1.0000
  C   C1400     1.0  0.998654014741659  0.687030427253487  0.45940221636740575  1.0000
  C   C1401     1.0  0.017656699183685325  0.6802662758136068  0.46569581990811554  1.0000
  C   C1402     1.0  0.0327152089657198  0.6772221881478632  0.44874354793221694  1.0000
  C   C1403     1.0  0.059190556721989744  0.7161255242332357  0.4118110350241082  1.0000
  C   C1404     1.0  0.06008657742842464  0.7368592990706541  0.4070105521850428  1.0000
  C   C1405     1.0  0.05237874686613907  0.744461782824743  0.38595446608141704  1.0000
  C   C1406     1.0  0.043110668627603425  0.7308615731101116  0.3700254262752966  1.0000
  C   C1407     1.0  0.041402932065920564  0.7101399970272773  0.37540102364950334  1.0000
  C   C1408     1.0  0.04958312666455192  0.7020375992579677  0.3965369363763032  1.0000
  H   H873      1.0  0.04289892709367224  0.6462146520845304  0.2619438069803285  1.0000
  H   H874      1.0  0.05224053642746125  0.607308016120266  0.321565223284262  1.0000
  H   H875      1.0  0.08484006389072177  0.5973663293823925  0.30557268502788937  1.0000
  H   H876      1.0  0.07671916081561778  0.6386837048086779  0.246063751692974  1.0000
  H   H877      1.0  0.014709749931878647  0.6057293251829184  0.33874971816394006  1.0000
  H   H878      1.0  0.9914634809550452  0.5776228356476051  0.3318429010179377  1.0000
  H   H879      1.0  0.9806589752104604  0.5983517378684539  0.2604289153814548  1.0000
  H   H880      1.0  0.003307825469298864  0.626926249746385  0.26705815358778334  1.0000
  H   H881      1.0  0.0638088491132896  0.6554582990343498  0.32617339653113514  1.0000
  H   H882      1.0  0.07034989663519496  0.671588833812617  0.3644030920658242  1.0000
  H   H883      1.0  0.011179326730438977  0.6546633333090622  0.3884690047114037  1.0000
  H   H884      1.0  0.0034113082157518635  0.6393509155239514  0.3506783556041726  1.0000
  H   H885      1.0  0.11719261562307023  0.6677696714601059  0.41710862001657656  1.0000
  H   H886      1.0  0.08798948423553443  0.68845281860763  0.40659146241337835  1.0000
  H   H887      1.0  0.046776114111091956  0.6386571325771254  0.4193691648455545  1.0000
  H   H888      1.0  0.07602292169917649  0.617062273239259  0.42854378378627783  1.0000
  H   H889      1.0  0.006039797928405255  0.6913731427787321  0.39939980936195907  1.0000
  H   H890      1.0  0.9808310869997331  0.6979201564700526  0.4308079570981273  1.0000
  H   H891      1.0  0.021809604817151447  0.6776790908410687  0.4843716212480021  1.0000
  H   H892      1.0  0.047484341039821715  0.6722006661044435  0.4555669099721736  1.0000
  H   H893      1.0  0.06542809758229763  0.7109723615818079  0.42841860112720925  1.0000
  H   H894      1.0  0.0673480381934745  0.7468061058339801  0.42034885522087395  1.0000
  H   H895      1.0  0.036972053116607916  0.7353828808798799  0.35307678278226956  1.0000
  H   H896      1.0  0.03376961035362011  0.7002122837753773  0.36257615093999696  1.0000
  C   C1409     1.0  0.9881620342881059  0.7065311004437166  1.5825148705572722e-05  1.0000
  C   C1410     1.0  0.9828567964352422  0.6899081515404489  0.4801081538739266  1.0000
  H   H897      1.0  0.9990663962946399  0.7178410905674216  0.4933829584595055  1.0000
  H   H898      1.0  0.974354640232815  0.7158198542459907  0.004703825018752882  1.0000
  H   H899      1.0  0.9686266221706326  0.6951508060420056  0.47205110765764174  1.0000
  H   H900      1.0  0.9788756760977194  0.675180480016139  0.4887058440380729  1.0000
  C   C1411     1.0  0.9873436847146178  0.7228209090287673  0.2527111323136602  1.0000
  C   C1412     1.0  0.9959241548249178  0.7195750027622579  0.2787200975369567  1.0000
  H   H901      1.0  0.9752946841801584  0.7113646467598547  0.24999339864286657  1.0000
  H   H902      1.0  0.9792825669337578  0.7380162956475345  0.2531755781212191  1.0000
  H   H903      1.0  0.9837926933316655  0.7229866767603323  0.29174816528727004  1.0000
  H   H904      1.0  0.007154328881274985  0.7319913721939363  0.2822415401637995  1.0000
  C   C1413     1.0  0.12458718247248793  0.6156237507017455  0.4049913014670232  1.0000
  C   C1414     1.0  0.11597893239538594  0.6265290447379395  0.4276711336556692  1.0000
  H   H905      1.0  0.11137948852047226  0.6105084192477835  0.39415846585399983  1.0000
  H   H906      1.0  0.13341933822821506  0.6258894386290494  0.3929175247119285  1.0000
  H   H907      1.0  0.12866688556144998  0.6346400148571051  0.43703080522284177  1.0000
  H   H908      1.0  0.11096536135782521  0.6144860599116959  0.44067924475018894  1.0000
  C   C1415     1.0  0.10218242337602407  0.6206826751624693  0.06042712092556204  1.0000
  C   C1416     1.0  0.12234846545074354  0.6302175632668104  0.06952499745355205  1.0000
  H   H909      1.0  0.10027260256847123  0.6055031638190784  0.06772218573882062  1.0000
  H   H910      1.0  0.10457383708490131  0.6171860567978537  0.04118346201627734  1.0000
  H   H911      1.0  0.12483428795746117  0.6453333838582388  0.061022192116496836  1.0000
  H   H912      1.0  0.12044796726553228  0.6337025399491564  0.08917214365815351  1.0000
  C   C1417     1.0  0.09188462835130136  0.6241387305318358  0.17373248558656237  1.0000
  C   C1418     1.0  0.09560032031239066  0.6429105286705088  0.19037016809749724  1.0000
  H   H913      1.0  0.09490842063669874  0.6282006104564712  0.15455395794482202  1.0000
  H   H914      1.0  0.07531823326755067  0.6209147809178629  0.17402167567142518  1.0000
  H   H915      1.0  0.09336200359711637  0.6386769378598481  0.20961926973108927  1.0000
  H   H916      1.0  0.11191663431914861  0.6474028615894915  0.18901130126210042  1.0000
  C   C1419     1.0  0.23343494873747395  0.53193775032897  0.34634594705553756  1.0000
  C   C1420     1.0  0.23618423715062947  0.5380741550195162  0.37349607014193764  1.0000
  H   H917      1.0  0.22663299690118383  0.5160217641523924  0.3450052226344985  1.0000
  H   H918      1.0  0.24909445710339345  0.5302520971047858  0.33902366862074235  1.0000
  H   H919      1.0  0.24380334563707293  0.5531643516024803  0.3749855623607104  1.0000
  H   H920      1.0  0.24708967474899354  0.5272790371883526  0.3809507882015446  1.0000
  C   C1421     1.0  0.16799124091523276  0.48962986799383235  0.1275865289710047  1.0000
  C   C1422     1.0  0.16031034028203275  0.48784628540624786  0.10147596622730473  1.0000
  H   H921      1.0  0.18497114530855052  0.49173661000702  0.12697131970013278  1.0000
  H   H922      1.0  0.1647263815383342  0.4748180713913217  0.13670200364092172  1.0000
  H   H923      1.0  0.16821986099872796  0.47420621040691263  0.09352160607628486  1.0000
  H   H924      1.0  0.1437288465493167  0.4835487929644193  0.10124338047523813  1.0000
  C   C1423     1.0  0.10591704834582813  0.6169586775826376  0.26911368913451844  1.0000
  C   C1424     1.0  0.11785464467320851  0.6308243536338903  0.2879944997566478  1.0000
  H   H925      1.0  0.10956619667637833  0.6229693461409368  0.25078622215030105  1.0000
  H   H926      1.0  0.11113831389010045  0.6007496708550139  0.27010245071701683  1.0000
  H   H927      1.0  0.11075959267062888  0.6296870714183229  0.306274796463535  1.0000
  H   H928      1.0  0.11641195136408121  0.6474331952404927  0.28400861132224614  1.0000
  C   C1425     1.0  0.9476923441998701  0.5769745837303911  0.30556179957927476  1.0000
  C   C1426     1.0  0.9676665403353064  0.5698043568393977  0.2944822271309857  1.0000
  H   H929      1.0  0.9404161800521464  0.5872516260155503  0.2922434531992371  1.0000
  H   H930      1.0  0.9513122147037473  0.5872603432693992  0.32204781150617867  1.0000
  H   H931      1.0  0.9652409969128997  0.5647204815344528  0.27538733601943466  1.0000
  H   H932      1.0  0.9726725065923599  0.5554058089647932  0.3039598243914838  1.0000
  C   C1427     1.0  0.9465767375574888  0.5970367921686878  0.09539735029673452  1.0000
  C   C1428     1.0  0.9685672897530091  0.5880303748533727  0.09564426855614373  1.0000
  H   H933      1.0  0.9448815387806498  0.6088803191469248  0.08082119032927282  1.0000
  H   H934      1.0  0.9440654959234877  0.6059480025520967  0.11214842289740544  1.0000
  H   H935      1.0  0.969972454155921  0.576081307737517  0.08125715254629  1.0000
  H   H936      1.0  0.9705669755751755  0.5796625998442121  0.11243071886481232  1.0000
  C   C1429     1.0  0.8150446046973743  0.5626850947377979  0.3915532151522243  1.0000
  C   C1430     1.0  0.8280043962485746  0.5735986033538194  0.4116967378136543  1.0000
  H   H937      1.0  0.8045504177599645  0.5735820807990899  0.3830553082670457  1.0000
  H   H938      1.0  0.8050425461201248  0.5517101275645626  0.400684292298489  1.0000
  H   H939      1.0  0.818297015385492  0.5849260517106626  0.42113623600400113  1.0000
  H   H940      1.0  0.8408635175628197  0.5824471571006216  0.40355986497419527  1.0000
  C   C1431     1.0  0.8120551466611383  0.5308888930037958  0.13597666991489815  1.0000
  C   C1432     1.0  0.812281189186883  0.5401105964397348  0.16214129705338426  1.0000
  H   H941      1.0  0.8029779091707637  0.5403660508468825  0.12301845045986225  1.0000
  H   H942      1.0  0.8051472717759611  0.5155751846140886  0.13530612628023506  1.0000
  H   H943      1.0  0.7970007312572533  0.5464766404435961  0.16447677005365977  1.0000
  H   H944      1.0  0.8231524653894277  0.5532560629864124  0.16355604252500303  1.0000
  C   C1433     1.0  0.10004153662512817  0.4643759732846663  0.4469365634621832  1.0000
  C   C1434     1.0  0.115785966626155  0.46979074143543886  0.46657754124590306  1.0000
  H   H945      1.0  0.1080166799250311  0.45439112183774955  0.43305035951274745  1.0000
  H   H946      1.0  0.09476496665620278  0.47840130400470066  0.4372104151249837  1.0000
  H   H947      1.0  0.1251381056633005  0.456144077904745  0.470528959093025  1.0000
  H   H948      1.0  0.10815905875938898  0.4735252095798506  0.48433533641928656  1.0000
  C   C1435     1.0  0.9514401814728011  0.47462870138832364  0.48713108247181863  1.0000
  C   C1436     1.0  0.9370463260770862  0.47272180824709176  0.4646490025996723  1.0000
  H   H949      1.0  0.9421640804265534  0.4711986445264693  0.003722320401997603  1.0000
  H   H950      1.0  0.9556863064978353  0.4912049785871724  0.4900356830104973  1.0000
  H   H951      1.0  0.9352513254714423  0.4562380236291018  0.4587019191731959  1.0000
  H   H952      1.0  0.944376828112472  0.47993695070709214  0.4489431144901524  1.0000
  C   C1437     1.0  0.923206996228718  0.45766104373492095  0.38615947536365985  1.0000
  C   C1438     1.0  0.9163170418780783  0.43460120000251656  0.38568958683179366  1.0000
  H   H953      1.0  0.9258647293688866  0.4624609849501925  0.4052307813365457  1.0000
  H   H954      1.0  0.9387932078269992  0.45929446498198817  0.3782802248080811  1.0000
  H   H955      1.0  0.9093174874035916  0.4312797034133804  0.36827286904833617  1.0000
  H   H956      1.0  0.904424155600128  0.43359405192780776  0.4000402365887883  1.0000
  C   C1439     1.0  0.07958252677115035  0.480806498335977  0.23594754144708247  1.0000
  C   C1440     1.0  0.06518672898130193  0.46919781204390393  0.21756020449548438  1.0000
  H   H957      1.0  0.089499128883804  0.46907208723531835  0.24324260626034105  1.0000
  H   H958      1.0  0.07062937103969538  0.4867482771361172  0.2518312252173085  1.0000
  H   H959      1.0  0.07511057539854558  0.46253300355244575  0.20283944948559132  1.0000
  H   H960      1.0  0.05644306235529504  0.4809831911027011  0.20793202519581683  1.0000
  C   C1441     1.0  0.919446146714898  0.43676164081724866  0.2554941786761419  1.0000
  C   C1442     1.0  0.9059381804341019  0.44029798490310873  0.23339671798838024  1.0000
  H   H961      1.0  0.9108621268439038  0.42826570373349476  0.2694547665244445  1.0000
  H   H962      1.0  0.9221059245602937  0.4519566871677715  0.2640084137342425  1.0000
  H   H963      1.0  0.9151932311574434  0.44801260615340527  0.21991871836199428  1.0000
  H   H964      1.0  0.901563938195887  0.4255899237579917  0.22475730027121105  1.0000
  C   C1443     1.0  0.010203529877092388  0.33219001044406793  0.29170825197568295  1.0000
  C   C1444     1.0  0.02119893075375941  0.33407301185059773  0.31670668471925173  1.0000
  H   H965      1.0  0.9950176901687421  0.32595780354779047  0.2947362209319944  1.0000
  H   H966      1.0  0.017986324924171293  0.3200610439706584  0.2811003823006959  1.0000
  H   H967      1.0  0.03749957124802704  0.33970445226117185  0.31476181790009894  1.0000
  H   H968      1.0  0.0221633849477652  0.318521059657413  0.32392917987507924  1.0000
  C   C1445     1.0  0.07787463516217943  0.3969984342385303  0.07873408698155518  1.0000
  C   C1446     1.0  0.07530030419365052  0.3894575546988614  0.05203462146780206  1.0000
  H   H969      1.0  0.08237885868094974  0.4137929297487887  0.07866224302069841  1.0000
  H   H970      1.0  0.09032717765684259  0.38871108653847847  0.08769970530887705  1.0000
  H   H971      1.0  0.0896868456561101  0.3934060716279038  0.04250658829538937  1.0000
  H   H972      1.0  0.07562230149286703  0.37248279323700545  0.05304896385454488  1.0000
  C   C1447     1.0  0.9496670556328373  0.4645683330712089  0.09099962905641151  1.0000
  C   C1448     1.0  0.9414396562180765  0.44456696944406376  0.07978344422800848  1.0000
  H   H973      1.0  0.9644504519257181  0.46856731531678053  0.08167515377309298  1.0000
  H   H974      1.0  0.9528783946200128  0.462179735603971  0.11035812944858088  1.0000
  H   H975      1.0  0.9419297666322264  0.44502209915257424  0.059683826209324276  1.0000
  H   H976      1.0  0.9253971212286165  0.4427980583677347  0.08509971590726528  1.0000
  C   C1449     1.0  0.5738805438988267  0.7141215012686406  0.30014447465204513  1.0000
  C   C1450     1.0  0.5792226151560127  0.6998149713602456  0.32140738427934945  1.0000
  H   H977      1.0  0.588012144870887  0.7203048242381148  0.2917663077016278  1.0000
  H   H978      1.0  0.5657206178160817  0.7283561918756372  0.30678278406555254  1.0000
  H   H979      1.0  0.5871619956955398  0.6861658001795391  0.3136986724187337  1.0000
  H   H980      1.0  0.5917319746886318  0.707211000228657  0.33242708676025784  1.0000
  C   C1451     1.0  0.5388540776811479  0.7405787856901455  0.06701590154787271  1.0000
  C   C1452     1.0  0.5294664418761069  0.7412801155363807  0.040914772859638786  1.0000
  H   H981      1.0  0.5439206418867154  0.7568208606033825  0.07134685870335912  1.0000
  H   H982      1.0  0.5536697728791807  0.7327580997662502  0.06623759197192446  1.0000
  H   H983      1.0  0.5402513241310881  0.7501664529389616  0.029209649964293916  1.0000
  H   H984      1.0  0.5155447609633407  0.7508553746317219  0.04137413879117748  1.0000
  C   C1453     1.0  0.28270621732443907  0.6015700718375073  0.2806631501146737  1.0000
  C   C1454     1.0  0.27450461786221275  0.6124537074149499  0.25734107645776266  1.0000
  H   H985      1.0  0.2758177048561054  0.6094042968340587  0.29745032611991656  1.0000
  H   H986      1.0  0.2764248067911003  0.5851322758454829  0.2817190386302958  1.0000
  H   H987      1.0  0.2808216073987649  0.6063114382812229  0.23992798715717678  1.0000
  H   H988      1.0  0.2782832414345505  0.6294587685891039  0.25886141078094366  1.0000
  C   C1455     1.0  0.4628884300797211  0.5919990105814448  0.41698888008181534  1.0000
  C   C1456     1.0  0.47374785640331657  0.5968736566708323  0.3928104844672176  1.0000
  H   H989      1.0  0.4749015900919493  0.5867436564660158  0.4294654184356525  1.0000
  H   H990      1.0  0.4570006959997049  0.6066679502654789  0.4257008674564156  1.0000
  H   H991      1.0  0.46244699490632346  0.596084142373169  0.3775726706481281  1.0000
  H   H992      1.0  0.4852277797165522  0.5844334260669466  0.38876472606543533  1.0000
  C   C1457     1.0  0.4483809404033075  0.6260101520951952  0.27123453737294156  1.0000
  C   C1458     1.0  0.42864940086451425  0.6393439582787244  0.2702131194445992  1.0000
  H   H993      1.0  0.44613665269040825  0.6115139402580371  0.2607736212542524  1.0000
  H   H994      1.0  0.45070436241518125  0.6214896531373405  0.28988312509129144  1.0000
  H   H995      1.0  0.4284941497255029  0.6477900388478969  0.2530522097035863  1.0000
  H   H996      1.0  0.4288520996836014  0.6520810897173598  0.28427893329617687  1.0000
  C   C1459     1.0  0.26602269834080744  0.5859641831837428  0.07230260109172636  1.0000
  C   C1460     1.0  0.27561939034882454  0.6075102136877877  0.06644278267831082  1.0000
  H   H997      1.0  0.2690848874639884  0.5829268244925944  0.09167488971880763  1.0000
  H   H998      1.0  0.273908253379451  0.5736343115495416  0.06188939952279815  1.0000
  H   H999      1.0  0.2721176265166941  0.6192838397777282  0.08073428816449911  1.0000
  H   H1000     1.0  0.26804766242775135  0.6133901059585535  0.04953840667631673  1.0000
  C   C1461     1.0  0.4430179868168254  0.626661834455694  0.16727868452707348  1.0000
  C   C1462     1.0  0.44439364593746894  0.6389042390323609  0.14378081087503572  1.0000
  H   H1001     1.0  0.4332350880000121  0.63556081588564  0.1808775126330822  1.0000
  H   H1002     1.0  0.45834573829520053  0.6257308006942336  0.17570474745139533  1.0000
  H   H1003     1.0  0.42888976162101106  0.6426196612881947  0.1382063726394679  1.0000
  H   H1004     1.0  0.4512859234696598  0.6295948376092422  0.12909833635943752  1.0000
  C   C1463     1.0  0.3589550947078908  0.5054562138283574  0.487981961705198  1.0000
  C   C1464     1.0  0.3481083361377485  0.5069115710450967  0.46318853824387196  1.0000
  H   H1005     1.0  0.37440671557818733  0.4996985306539288  0.4847888967782307  1.0000
  H   H1006     1.0  0.35143122914392766  0.49245465722301046  0.49749402955297584  1.0000
  H   H1007     1.0  0.33352376704975956  0.5154848295208193  0.4661003957482937  1.0000
  H   H1008     1.0  0.3434043352348466  0.49101520210753274  0.45783652600833036  1.0000
  C   C1465     1.0  0.36783686127417253  0.500454277877517  0.2106025885892803  1.0000
  C   C1466     1.0  0.3795138929963988  0.4992201339273829  0.23545588201798692  1.0000
  H   H1009     1.0  0.3520042311919443  0.5056138488733715  0.21414398787191666  1.0000
  H   H1010     1.0  0.3657439255680436  0.4846658748056325  0.20256368478735323  1.0000
  H   H1011     1.0  0.3959931345428712  0.49511734918112443  0.23315360963598616  1.0000
  H   H1012     1.0  0.3732884206742551  0.48527251994433757  0.2452310148739524  1.0000
  C   C1467     1.0  0.4350047781237663  0.6243470717174451  0.015164754316470758  1.0000
  C   C1468     1.0  0.4172424086462902  0.6394383002399358  0.012285154024777077  1.0000
  H   H1013     1.0  0.43227869028121607  0.6095968065395715  0.005531119113467042  1.0000
  H   H1014     1.0  0.4365912584898542  0.6200647049622438  0.033987454785412166  1.0000
  H   H1015     1.0  0.41482274947959896  0.6440375473950094  0.49339928663242755  1.0000
  H   H1016     1.0  0.41966569530686676  0.6538676916222671  0.023173305859177293  1.0000
  C   C1469     1.0  0.7706358236991463  0.4506761046305979  0.4926100916078646  1.0000
  C   C1470     1.0  0.7841136697065294  0.45496476458752627  0.46981777645020045  1.0000
  H   H1017     1.0  0.7791691082431053  0.4506377942247324  0.009714759864368427  1.0000
  H   H1018     1.0  0.7645091981215518  0.43495345683705977  0.49026609167284096  1.0000
  H   H1019     1.0  0.7912765334140787  0.44029161234440023  0.4640630026159164  1.0000
  H   H1020     1.0  0.7745687558061033  0.45839211986681266  0.4537236406734243  1.0000
  C   C1471     1.0  0.5887777465732735  0.5969566473948577  0.4726117082612967  1.0000
  C   C1472     1.0  0.571734644173203  0.5933607198063684  0.4917065993728477  1.0000
  H   H1021     1.0  0.599684291795538  0.6076074417170846  0.4826390206768352  1.0000
  H   H1022     1.0  0.5827557309582512  0.6065397743997287  0.4575172195156336  1.0000
  H   H1023     1.0  0.5779605184430641  0.5904619836783833  0.010030940898410024  1.0000
  H   H1024     1.0  0.5632934283209042  0.5793139958985202  0.48705125584864445  1.0000
  C   C1473     1.0  0.7416359581041931  0.4624023093036522  0.30421926091679985  1.0000
  C   C1474     1.0  0.7556367397833926  0.45134015111247816  0.2854291623664594  1.0000
  H   H1025     1.0  0.751583775063875  0.4721693227204326  0.315492957198717  1.0000
  H   H1026     1.0  0.7372317665277756  0.45029602004194186  0.31640007791660546  1.0000
  H   H1027     1.0  0.7631533120645531  0.4388438857415102  0.29480153362368244  1.0000
  H   H1028     1.0  0.746734826190569  0.4435971384550433  0.2718223515981332  1.0000
  C   C1475     1.0  0.5859723147259892  0.5921288634107358  0.18703740657997522  1.0000
  C   C1476     1.0  0.5636016036086465  0.5877525286953278  0.19544822987623656  1.0000
  H   H1029     1.0  0.587057185018071  0.6028442148409795  0.1715365277526981  1.0000
  H   H1030     1.0  0.5934058121161033  0.6001956565446943  0.20240584578244064  1.0000
  H   H1031     1.0  0.5628864510033034  0.5762861918817319  0.20975533783877254  1.0000
  H   H1032     1.0  0.5545873626249787  0.581549341548846  0.1798468420734174  1.0000
  C   C1477     1.0  0.6874865330926355  0.5778466464985827  0.34614456625616635  1.0000
  C   C1478     1.0  0.6996761287502024  0.5683921979263408  0.3672641508100443  1.0000
  H   H1033     1.0  0.6742724203634926  0.5862880606033858  0.3536754824560759  1.0000
  H   H1034     1.0  0.6975906532195971  0.5897828789334905  0.33825624449340874  1.0000
  H   H1035     1.0  0.7091843346533727  0.5803217360753548  0.37700844156160157  1.0000
  H   H1036     1.0  0.7110272901297469  0.5574633174361959  0.36046618815018855  1.0000
  C   C1479     1.0  0.7182681959867472  0.5485616477087143  0.09596774780414274  1.0000
  C   C1480     1.0  0.7194964206236243  0.5397758469706894  0.12209463872076469  1.0000
  H   H1037     1.0  0.7329537331013034  0.5559228095354393  0.09263625625562577  1.0000
  H   H1038     1.0  0.70644227250997  0.5607506431134253  0.09498225185622876  1.0000
  H   H1039     1.0  0.7282046943112032  0.5252450792195154  0.12106487528181777  1.0000
  H   H1040     1.0  0.7286132395357106  0.5504577883984604  0.1340187405574078  1.0000
  C   C1481     1.0  0.44024935852016805  0.45505541567628816  0.34198995336823745  1.0000
  C   C1482     1.0  0.4268700826345039  0.46721510764616186  0.32333048020127286  1.0000
  H   H1041     1.0  0.4298168880026922  0.44389801100116166  0.3506112286710489  1.0000
  H   H1042     1.0  0.44569152871819395  0.4645912655835434  0.35712979814979495  1.0000
  H   H1043     1.0  0.4148885988448911  0.4564591791765151  0.3160880283896518  1.0000
  H   H1044     1.0  0.4358586837957063  0.47168051561534197  0.30728714318469846  1.0000
  C   C1483     1.0  0.5746651565178122  0.4723249033028648  0.2539230455927592  1.0000
  C   C1484     1.0  0.5849808790855859  0.47801433551545164  0.27791638858090756  1.0000
  H   H1045     1.0  0.5862275926780723  0.4655908457443799  0.24108365895176662  1.0000
  H   H1046     1.0  0.5703709309477967  0.4868478017907581  0.2460456092786162  1.0000
  H   H1047     1.0  0.5758815892262792  0.4894842758199424  0.2877586483699968  1.0000
  H   H1048     1.0  0.5846046862456089  0.4643642132679463  0.28979785574380995  1.0000
  C   C1485     1.0  0.6043199836262427  0.4355859258547704  0.41212127030962614  1.0000
  C   C1486     1.0  0.5947541446247154  0.4560499710375556  0.4032260445500124  1.0000
  H   H1049     1.0  0.61998687363917  0.4333723866161915  0.4045105274865423  1.0000
  H   H1050     1.0  0.6064311078601571  0.43634452906046506  0.43226842145392763  1.0000
  H   H1051     1.0  0.5790182046378608  0.4568836898052428  0.4108186449587384  1.0000
  H   H1052     1.0  0.5938620451813152  0.4560056364546068  0.38300632374827975  1.0000
  C   C1487     1.0  0.46460357665530777  0.4949456349904057  0.07662702697804397  1.0000
  C   C1488     1.0  0.47169694283816455  0.47502890111208923  0.08869009970866762  1.0000
  H   H1053     1.0  0.4782256297654751  0.5035526133398873  0.06992721477986377  1.0000
  H   H1054     1.0  0.45609930253038905  0.49158745098896167  0.05981880577214607  1.0000
  H   H1055     1.0  0.45859275187769644  0.4660801967087899  0.09601092675031422  1.0000
  H   H1056     1.0  0.48179038820915376  0.47912843568328595  0.10408792962239262  1.0000
  C   C1489     1.0  0.603023756365501  0.4471122820320845  0.49635287168987213  1.0000
  C   C1490     1.0  0.6151894311364491  0.4496849703274267  0.02083021304487153  1.0000
  H   H1057     1.0  0.611582281279662  0.4371173680525352  0.4831070949672656  1.0000
  H   H1058     1.0  0.6031836594080263  0.46234391789368157  0.4878658502533082  1.0000
  H   H1059     1.0  0.6049768435908681  0.4580121144962135  0.03419754394367512  1.0000
  H   H1060     1.0  0.6168900882830305  0.43408175321285125  0.028490666083295563  1.0000
  C   C1491     1.0  0.6107506915113378  0.4275286213094714  0.15204449919085555  1.0000
  C   C1492     1.0  0.5998437316354177  0.4473159791680927  0.14584124487364747  1.0000
  H   H1061     1.0  0.6257539698931932  0.4275200004050263  0.14261207654210828  1.0000
  H   H1062     1.0  0.6152880573464902  0.42787851568379526  0.17217423361737363  1.0000
  H   H1063     1.0  0.584649093674914  0.4469312852563584  0.153616176546669  1.0000
  H   H1064     1.0  0.595801900691095  0.4475181333036673  0.12643013147984053  1.0000
  C   C1493     1.0  0.46775090913598033  0.377429442029612  0.45743013592671633  1.0000
  C   C1494     1.0  0.4623605466094803  0.38716317199233286  0.4329378765437293  1.0000
  H   H1065     1.0  0.471503394248596  0.36077667890115045  0.45445296573060656  1.0000
  H   H1066     1.0  0.4539473794804758  0.3764320509924992  0.46877640186606456  1.0000
  H   H1067     1.0  0.4489342364518517  0.37855000314137793  0.42477197584129783  1.0000
  H   H1068     1.0  0.4570835904796217  0.40322277160475656  0.435468743346638  1.0000
  C   C1495     1.0  0.4714722213805567  0.3832457986987352  0.178803108975415  1.0000
  C   C1496     1.0  0.474338688219119  0.3726089497478002  0.20330752377602174  1.0000
  H   H1069     1.0  0.46763590259170323  0.3998317014229707  0.1809170630963821  1.0000
  H   H1070     1.0  0.4577141717194838  0.3768002812477869  0.1699652132451718  1.0000
  H   H1071     1.0  0.4585031620999683  0.3690769755428792  0.21063887341799586  1.0000
  H   H1072     1.0  0.48219888463414207  0.3575932950519284  0.20022149909376535  1.0000
  C   C1497     1.0  0.830984263151122  0.008539855498110229  0.3519555815749595  1.0000
  C   C1498     1.0  0.841442517414265  0.0007993141886576688  0.32824526025079226  1.0000
  H   H1073     1.0  0.8215881029703819  0.9958180190715771  0.35972234916152007  1.0000
  H   H1074     1.0  0.8194425748642592  0.02054577254382646  0.34856476433149264  1.0000
  H   H1075     1.0  0.8317851137644977  0.9886219310466676  0.32017007162014965  1.0000
  H   H1076     1.0  0.8557392859684481  0.99282112155109  0.33225473382385906  1.0000
  C   C1499     1.0  0.8149973453524538  0.01895561497845401  0.10691506205176363  1.0000
  C   C1500     1.0  0.8228661107013255  0.006951058859840367  0.08455199641780427  1.0000
  H   H1077     1.0  0.8030794287421801  0.0300932238343746  0.10146054517510064  1.0000
  H   H1078     1.0  0.8073204526514691  0.008184936626504937  0.11877802395202108  1.0000
  H   H1079     1.0  0.8106633801399886  0.9970801726830022  0.07784311301244519  1.0000
  H   H1080     1.0  0.8354592326577943  0.9965026804972869  0.08934250092897295  1.0000
  C   C1501     1.0  0.9641698494313927  0.2832243398118063  0.40437445937885913  1.0000
  C   C1502     1.0  0.9759375020209546  0.2739693321117238  0.38246930828328973  1.0000
  H   H1081     1.0  0.9684967839342076  0.27686244085941547  0.4222501802455681  1.0000
  H   H1082     1.0  0.9478624191280058  0.2788807190246618  0.4030972334080722  1.0000
  H   H1083     1.0  0.9680794802650464  0.27865685066208606  0.36596878242489966  1.0000
  H   H1084     1.0  0.9910913939421825  0.28173533335535594  0.38038293063214645  1.0000
  C   C1503     1.0  0.9469052314325643  0.1086679837339632  0.3980554564580484  1.0000
  C   C1504     1.0  0.9396044610961024  0.1299385398585224  0.40863792675293464  1.0000
  H   H1085     1.0  0.9507168781159256  0.11009893945742813  0.37829111025669576  1.0000
  H   H1086     1.0  0.9618252025505577  0.10619618692876553  0.40662593300065814  1.0000
  H   H1087     1.0  0.9368850203116148  0.12873233191694375  0.42847302837028256  1.0000
  H   H1088     1.0  0.9243242839323587  0.13392497403037415  0.4016494687423223  1.0000
  C   C1505     1.0  0.9465482794426433  0.10314983664064113  0.2743949459540648  1.0000
  C   C1506     1.0  0.9324305412906164  0.10400919714397622  0.2519128660819185  1.0000
  H   H1089     1.0  0.9490150376775948  0.0868235932737647  0.2789232925777637  1.0000
  H   H1090     1.0  0.9381157821959006  0.11073239992862738  0.2899339238514932  1.0000
  H   H1091     1.0  0.9391235823467506  0.09468035218516178  0.2366786807457005  1.0000
  H   H1092     1.0  0.932514978922091  0.11999777271905523  0.24511853190493427  1.0000
  C   C1507     1.0  0.9659655126565202  0.30346132824461153  0.11209472135090645  1.0000
  C   C1508     1.0  0.9861453702885845  0.2910306529963927  0.11310489098234698  1.0000
  H   H1093     1.0  0.9553620225338734  0.2991206915206563  0.12754643423527404  1.0000
  H   H1094     1.0  0.9573883798796439  0.2992791708646413  0.09545613171925368  1.0000
  H   H1095     1.0  0.9956591682696105  0.29634884157835306  0.12833871347027775  1.0000
  H   H1096     1.0  0.9950832180830165  0.29354745076893163  0.09657515583684081  1.0000
  C   C1509     1.0  0.9107165207319711  0.1578432261715368  0.14400251117848764  1.0000
  C   C1510     1.0  0.9228561149551139  0.13764413086541688  0.13961222832805134  1.0000
  H   H1097     1.0  0.9035914636944785  0.15748318719316756  0.16195914721323226  1.0000
  H   H1098     1.0  0.897890164797067  0.15836584971086018  0.13125129667127386  1.0000
  H   H1099     1.0  0.9368694042400025  0.13645193354257246  0.1511246787829167  1.0000
  H   H1100     1.0  0.9288628641817157  0.13826728694335863  0.1208125142981012  1.0000
  C   C1511     1.0  0.07759325473585858  0.1858951815108585  0.44030006829011165  1.0000
  C   C1512     1.0  0.0703148908235737  0.19635328996600507  0.46437142365999845  1.0000
  H   H1101     1.0  0.08418410279887491  0.17061683660690294  0.4433679505580102  1.0000
  H   H1102     1.0  0.09102413981357418  0.19467326861271983  0.4334839632158981  1.0000
  H   H1103     1.0  0.08239170645111406  0.20042920265754205  0.4769223459127025  1.0000
  H   H1104     1.0  0.0641266483290428  0.21124703392807587  0.4593713742629975  1.0000
  C   C1513     1.0  0.05535076752770362  0.16959900501720226  0.17578203413655943  1.0000
  C   C1514     1.0  0.06034918724450645  0.17879289595094827  0.20077121424880573  1.0000
  H   H1105     1.0  0.0531762504835876  0.1531855201669057  0.17759536845161836  1.0000
  H   H1106     1.0  0.06857818964190456  0.17058047561046463  0.1631099205559455  1.0000
  H   H1107     1.0  0.07754774904273631  0.17857381685450907  0.2028630346242564  1.0000
  H   H1108     1.0  0.05729097740486043  0.19526128973856727  0.2014533690286578  1.0000
  C   C1515     1.0  0.9423940409736101  0.11262791396014063  0.49341742904678526  1.0000
  C   C1516     1.0  0.9286811629363744  0.1096446838740455  0.01559053863903322  1.0000
  H   H1109     1.0  0.9350013216154972  0.12184976286632061  0.4793788288167443  1.0000
  H   H1110     1.0  0.9452636215077387  0.09711702627975528  0.48524245713717495  1.0000
  H   H1111     1.0  0.9376664366969786  0.10235521736050424  0.029784583075291592  1.0000
  H   H1112     1.0  0.925284210742463  0.12497205903269896  0.02394653555910537  1.0000
  C   C1517     1.0  0.0363975441379642  0.7752941045813536  0.3623584419677037  1.0000
  C   C1518     1.0  0.051987287807457344  0.7678454696974991  0.381402534319053  1.0000
  H   H1113     1.0  0.02139434871184483  0.7678029072812078  0.36494555025512154  1.0000
  H   H1114     1.0  0.04257162045517837  0.7705647209712748  0.3440799595022523  1.0000
  H   H1115     1.0  0.04994982880097797  0.776527577289642  0.39843100443525425  1.0000
  H   H1116     1.0  0.0670488969168548  0.7720675625708656  0.3743886769283398  1.0000
  C   C1519     1.0  0.9710827810141852  0.9776368883164533  0.46539465582977657  1.0000
  C   C1520     1.0  0.9525533578099111  0.9739106631554357  0.4484968110969513  1.0000
  H   H1117     1.0  0.965136691031074  0.9831171127667636  0.48345724356437053  1.0000
  H   H1118     1.0  0.979956960129005  0.991390313878086  0.459148222566397  1.0000
  H   H1119     1.0  0.9583599012865616  0.9659973711435575  0.43167516450442867  1.0000
  H   H1120     1.0  0.9425646910207827  0.9617023151301475  0.45597148581235175  1.0000
  C   C1521     1.0  0.06559054482605588  0.7925449850994042  0.10528024909398515  1.0000
  C   C1522     1.0  0.07464126399273535  0.7883305593756036  0.13054900381148465  1.0000
  H   H1121     1.0  0.07912224926259771  0.7945979303905228  0.09355807232914397  1.0000
  H   H1122     1.0  0.058373228074450535  0.7785454070236598  0.09648008958560611  1.0000
  H   H1123     1.0  0.07575682522602845  0.8025371424488068  0.1419584053527979  1.0000
  H   H1124     1.0  0.09072601033373799  0.7836442934718093  0.12724817294323232  1.0000
  C   C1523     1.0  0.9557439192613594  0.9887342974806513  0.18572933850478013  1.0000
  C   C1524     1.0  0.9594473233528711  0.009392882863383826  0.17278781007095337  1.0000
  H   H1125     1.0  0.9429580889660016  0.9792507630855098  0.17736368982026965  1.0000
  H   H1126     1.0  0.949903671731317  0.9915620081454701  0.20404229155751136  1.0000
  H   H1127     1.0  0.9663691486835219  0.006956571228924397  0.1544373022205016  1.0000
  H   H1128     1.0  0.970961231270499  0.019253206146836916  0.18250543147340473  1.0000
  C   C1525     1.0  0.9685340733823126  0.8691768010148031  0.28255721817362467  1.0000
  C   C1526     1.0  0.9753757475414163  0.8581250135231723  0.2588196832279208  1.0000
  H   H1129     1.0  0.9534761270428436  0.8624076206168653  0.28811786817428064  1.0000
  H   H1130     1.0  0.9660253635317743  0.885933835642173  0.2783536207669298  1.0000
  H   H1131     1.0  0.9869924361967681  0.845869019452563  0.26314483481081274  1.0000
  H   H1132     1.0  0.9629059159737154  0.8501815226285774  0.2490681355106204  1.0000
  C   C1527     1.0  0.9519501570882395  0.8500839539833656  0.03625815936643043  1.0000
  C   C1528     1.0  0.9566937652520965  0.8382257465277181  0.012267483313192612  1.0000
  H   H1133     1.0  0.9403582186232773  0.841503351231549  0.04659915412621471  1.0000
  H   H1134     1.0  0.9435132392607439  0.8639339255800151  0.03159229324189961  1.0000
  H   H1135     1.0  0.9415373062650308  0.8345110192376274  0.0036025804672362716  1.0000
  H   H1136     1.0  0.9637694764407683  0.8229925312970282  0.015601950217664256  1.0000
  C   C1529     1.0  0.09937242059706523  0.07178496034731996  0.31842658560036813  1.0000
  C   C1530     1.0  0.08902216002655419  0.08728203799616845  0.33608641173621967  1.0000
  H   H1137     1.0  0.10935156640289448  0.08073428894711818  0.3059917747995538  1.0000
  H   H1138     1.0  0.08699950433040138  0.06445384560507872  0.3065306045059796  1.0000
  H   H1139     1.0  0.10078107061659164  0.09615520243960263  0.3463205476754367  1.0000
  H   H1140     1.0  0.08085412655122262  0.07812681333291606  0.34915620703955585  1.0000
  C   C1531     1.0  0.10195925957613051  0.9325695432555786  0.38881371058420133  1.0000
  C   C1532     1.0  0.0950457110314062  0.9242316225074075  0.363860633876527  1.0000
  H   H1141     1.0  0.10904605151744838  0.9201552197900644  0.4004284842560445  1.0000
  H   H1142     1.0  0.0882926085590049  0.9377401522352364  0.39916214373387227  1.0000
  H   H1143     1.0  0.09026858579173902  0.9373301022709709  0.3524617549355412  1.0000
  H   H1144     1.0  0.10781091243285341  0.9167020716522953  0.35417258460947876  1.0000
  C   C1533     1.0  0.09369439805749881  0.9522229764099728  0.21549378350013462  1.0000
  C   C1534     1.0  0.11202633724042677  0.9370706487716958  0.21209570929092464  1.0000
  H   H1145     1.0  0.09702783906754985  0.9653735664363877  0.20395520796859404  1.0000
  H   H1146     1.0  0.09326745472866291  0.9587742130264544  0.23376319475840715  1.0000
  H   H1147     1.0  0.11235212127683034  0.9307775964055963  0.19365031661338172  1.0000
  H   H1148     1.0  0.10852404672115817  0.9236005995269376  0.22383929410470796  1.0000
  C   C1535     1.0  0.08198438224678481  0.09640460617792279  0.07696919291283148  1.0000
  C   C1536     1.0  0.07066870837594733  0.11138610247082613  0.09457259614003037  1.0000
  H   H1149     1.0  0.09109495508890451  0.10487812554444242  0.06302692890303022  1.0000
  H   H1150     1.0  0.07084068605732098  0.08738803631057071  0.06659064335532662  1.0000
  H   H1151     1.0  0.08246892185401541  0.12110774352207022  0.10443771537121038  1.0000
  H   H1152     1.0  0.06279672176488114  0.10304356544385779  0.10957691708633538  1.0000
  C   C1537     1.0  0.07863728328517387  0.9508404358061998  0.11648899553250149  1.0000
  C   C1538     1.0  0.07832671801408772  0.9409912851976595  0.09066907426681296  1.0000
  H   H1153     1.0  0.08476366578857003  0.939934108034472  0.12931023975913625  1.0000
  H   H1154     1.0  0.06277069046698824  0.9545797793495436  0.12326428017441  1.0000
  H   H1155     1.0  0.09407995422719181  0.9366513738280423  0.08592827997098457  1.0000
  H   H1156     1.0  0.0736093171193945  0.9522131304154221  0.07699241520320943  1.0000
  C   C1539     1.0  0.20461268836780255  0.027255033183394645  0.45525848892809145  1.0000
  C   C1540     1.0  0.21057363248665575  0.017370313445352926  0.4304432945695362  1.0000
  H   H1157     1.0  0.1949674517553618  0.04100798868023663  0.45290541778588894  1.0000
  H   H1158     1.0  0.21925864756215663  0.03387059174811281  0.4626116094672949  1.0000
  H   H1159     1.0  0.21862868573632221  0.0029504861842721956  0.43369622946388403  1.0000
  H   H1160     1.0  0.22171070852884364  0.02778761359402882  0.42192724526999975  1.0000
  C   C1541     1.0  0.15702172782541715  0.07260078491363707  0.21991146139625115  1.0000
  C   C1542     1.0  0.16493071663107783  0.07295395971292667  0.1929717903164012  1.0000
  H   H1161     1.0  0.1407178474181628  0.07502569682266792  0.21909868123302312  1.0000
  H   H1162     1.0  0.1643065358841643  0.08517143474886836  0.23115612981519587  1.0000
  H   H1163     1.0  0.18167150554696715  0.07230722063438032  0.1939115673801336  1.0000
  H   H1164     1.0  0.1614053694805507  0.0881392528246021  0.18694669450818638  1.0000
  C   C1543     1.0  0.0863566229205645  0.9191987686633021  0.020347987671242053  1.0000
  C   C1544     1.0  0.10840944989253577  0.9146867204748579  0.01178317156191199  1.0000
  H   H1165     1.0  0.08425366210142077  0.9359436098018908  0.021889730043365193  1.0000
  H   H1166     1.0  0.0847003503242791  0.9139623585257984  0.03941258095081559  1.0000
  H   H1167     1.0  0.10895631107768439  0.9118071493472272  0.49221095849199376  1.0000
  H   H1168     1.0  0.1131343589089123  0.8993863063910366  0.019729512765785735  1.0000
  C   C1545     1.0  0.759973581631632  0.1176770937967085  0.2688615095749455  1.0000
  C   C1546     1.0  0.7759201235450711  0.11290730339130682  0.28864218394922014  1.0000
  H   H1169     1.0  0.754118535954847  0.13382146879829182  0.27183686552961944  1.0000
  H   H1170     1.0  0.768026908948903  0.11922833087979204  0.25151191872461176  1.0000
  H   H1171     1.0  0.7683154202189276  0.10626060764715989  0.3048488026950144  1.0000
  H   H1172     1.0  0.7812298512438964  0.12819742665911604  0.29422823332997694  1.0000
  C   C1547     1.0  0.7768954829912222  0.11845805938023597  0.0017847105485879755  1.0000
  C   C1548     1.0  0.7597792819472721  0.11409415793445969  0.4822779866311156  1.0000
  H   H1173     1.0  0.7828020960950508  0.13382934429970517  0.4981544134355985  1.0000
  H   H1174     1.0  0.7691933001766759  0.11967205959424121  0.01950363970703152  1.0000
  H   H1175     1.0  0.766495107185148  0.1150844831258314  0.4640049468899715  1.0000
  H   H1176     1.0  0.7498349013397215  0.12791315418129476  0.4823995408073127  1.0000
  C   C1549     1.0  0.7091437170990852  0.9888383654311582  0.4212922607674779  1.0000
  C   C1550     1.0  0.7180887169453001  0.9960374284128357  0.3964607382360006  1.0000
  H   H1177     1.0  0.7203645369456094  0.977508063570902  0.42799225438980165  1.0000
  H   H1178     1.0  0.6951602327746932  0.9795094493538059  0.4180901246333318  1.0000
  H   H1179     1.0  0.7233760335218347  0.981978307315583  0.3863336425414944  1.0000
  H   H1180     1.0  0.732353221837849  0.005833938550957957  0.399229270666996  1.0000
  C   C1551     1.0  0.7179705250457701  0.00883142486138227  0.16299471622477368  1.0000
  C   C1552     1.0  0.7060377198178511  0.00289366466607279  0.1862409545896692  1.0000
  H   H1181     1.0  0.7266544439589694  0.9954908161245218  0.15717372257808376  1.0000
  H   H1182     1.0  0.7303694540668159  0.020069897880016178  0.1670127167325886  1.0000
  H   H1183     1.0  0.6917316442782699  0.9942466239830118  0.18190310331672685  1.0000
  H   H1184     1.0  0.7153593143839451  0.9915844294453194  0.19601064472132737  1.0000
  C   C1553     1.0  0.5579126662242456  0.2902600431274322  0.3940042553319588  1.0000
  C   C1554     1.0  0.5650137003660052  0.2828515677125168  0.4191405704246466  1.0000
  H   H1185     1.0  0.568478416128987  0.28389421140206034  0.37986405758151426  1.0000
  H   H1186     1.0  0.5427041856297143  0.2834900601800792  0.38955573533143406  1.0000
  H   H1187     1.0  0.5548307953225574  0.2885673325651864  0.43366357311804005  1.0000
  H   H1188     1.0  0.5807088838591101  0.28878649011964735  0.4230339325458236  1.0000
  C   C1555     1.0  0.6053678488488201  0.1042512096459178  0.47792562142668704  1.0000
  C   C1556     1.0  0.6092480107518291  0.08746877129375098  0.49738154658395767  1.0000
  H   H1189     1.0  0.6097566475705157  0.09796068578759479  0.4599882163511616  1.0000
  H   H1190     1.0  0.6157259839920499  0.11772196415760804  0.4802333365329951  1.0000
  H   H1191     1.0  0.5974909502073624  0.07536821907113583  0.4947127974319299  1.0000
  H   H1192     1.0  0.6063705809216048  0.09375143667438773  0.015835896650807677  1.0000
  C   C1557     1.0  0.6177643360693028  0.13109211774019672  0.39003832355335066  1.0000
  C   C1558     1.0  0.6088437899816734  0.11031147220223396  0.39939073815478016  1.0000
  H   H1193     1.0  0.624382848437988  0.12927583713184593  0.37126455317593215  1.0000
  H   H1194     1.0  0.6309318706312633  0.13495030349238168  0.4021737845172618  1.0000
  H   H1195     1.0  0.6084540070347152  0.10981784574824682  0.4191187995274173  1.0000
  H   H1196     1.0  0.5929006930895864  0.1081983596750152  0.3925818900463098  1.0000
  C   C1559     1.0  0.5738352242764402  0.28667693888362983  0.10907165084647154  1.0000
  C   C1560     1.0  0.5550390417074006  0.2725800517519677  0.10376753458483444  1.0000
  H   H1197     1.0  0.5856118395485146  0.2846500145659953  0.0943293063634927  1.0000
  H   H1198     1.0  0.5813896307653988  0.2823298234994126  0.12555294574564246  1.0000
  H   H1199     1.0  0.551336308871472  0.2741038852014482  0.08405634565755005  1.0000
  H   H1200     1.0  0.5416608178330398  0.2781439576336562  0.11413356587643243  1.0000
  C   C1561     1.0  0.5968242560390962  0.11912920200061847  0.26535639512102466  1.0000
  C   C1562     1.0  0.6076412294683856  0.11151507225363363  0.24189643911499462  1.0000
  H   H1201     1.0  0.5931384349880643  0.10535790045266791  0.2761710883196903  1.0000
  H   H1202     1.0  0.6071828042022751  0.12913187514480623  0.2761366177324105  1.0000
  H   H1203     1.0  0.610847457521355  0.12518762344734446  0.23032520723761007  1.0000
  H   H1204     1.0  0.5966431340751214  0.10227954169660747  0.2308331948396276  1.0000
  C   C1563     1.0  0.5068007947924652  0.227357642755321  0.2989960598231984  1.0000
  C   C1564     1.0  0.5005143233881539  0.22408254434699157  0.32524631915745317  1.0000
  H   H1205     1.0  0.5187282997469244  0.23955389713448916  0.29750838184586137  1.0000
  H   H1206     1.0  0.49347071509236246  0.23392094801346164  0.2899756514045161  1.0000
  H   H1207     1.0  0.49648213591050117  0.23858913088012101  0.3343882817523326  1.0000
  H   H1208     1.0  0.48583458788526956  0.21489907553720086  0.3252753470204256  1.0000
  C   C1565     1.0  0.4712000088147348  0.1565922622489993  0.08073646525422204  1.0000
  C   C1566     1.0  0.46868896926611897  0.1639889421270732  0.0542363848742608  1.0000
  H   H1209     1.0  0.4692476992873323  0.13955629181033155  0.08165610423801732  1.0000
  H   H1210     1.0  0.45792848213879167  0.1627109806045272  0.09121171388025381  1.0000
  H   H1211     1.0  0.4532141549471881  0.1582929112865226  0.04893625994378241  1.0000
  H   H1212     1.0  0.4682071502733107  0.18106991969848332  0.05508381704891215  1.0000
  C   C1567     1.0  0.6072209487106646  0.10839885955729411  0.11007238642244602  1.0000
  C   C1568     1.0  0.6156670912253152  0.12879471022992361  0.10003709134459013  1.0000
  H   H1213     1.0  0.5914951757713045  0.1048565209244351  0.10313400147546116  1.0000
  H   H1214     1.0  0.6050434077150512  0.11113248275099437  0.13019486388322102  1.0000
  H   H1215     1.0  0.6196045320595255  0.12721148991733214  0.08045543925582022  1.0000
  H   H1216     1.0  0.6305261242763508  0.1325624803860684  0.10911120130977146  1.0000
  C   C1569     1.0  0.45383514051112367  0.7659856787847179  0.3539530613957497  1.0000
  C   C1570     1.0  0.4653592149029526  0.7494727251074929  0.3377156005455472  1.0000
  H   H1217     1.0  0.44601301362398005  0.75790186475594  0.3683073396356159  1.0000
  H   H1218     1.0  0.4402874272586341  0.7716972560211474  0.34369715455930344  1.0000
  H   H1219     1.0  0.45386914820613067  0.7425402036052491  0.32560735320317274  1.0000
  H   H1220     1.0  0.4765942466473739  0.7576198750529819  0.32618065349687825  1.0000
  C   C1571     1.0  0.578752028635462  0.9648623102601902  0.33601202783735284  1.0000
  C   C1572     1.0  0.5744333794620285  0.9865313151413584  0.34712607087292163  1.0000
  H   H1221     1.0  0.588371997661623  0.9670212821533063  0.31993422023349866  1.0000
  H   H1222     1.0  0.5883544423706841  0.9562022315517341  0.3486282627817448  1.0000
  H   H1223     1.0  0.5672627605979969  0.985305110611903  0.36523220040197424  1.0000
  H   H1224     1.0  0.5628476657026175  0.9932994309394447  0.33504866563495533  1.0000
  C   C1573     1.0  0.4443476915920493  0.8069030224226339  0.17793045884480635  1.0000
  C   C1574     1.0  0.4522302772291452  0.7891050827751059  0.19357048999020754  1.0000
  H   H1225     1.0  0.438952670363357  0.800543877587622  0.16043572867961048  1.0000
  H   H1226     1.0  0.43078635743017946  0.8139650969239174  0.18629901031561408  1.0000
  H   H1227     1.0  0.43952802672626057  0.7805798219821437  0.202378632160904  1.0000
  H   H1228     1.0  0.4608405512955204  0.7961126381964997  0.20856700969833872  1.0000
  C   C1575     1.0  0.5747684076491089  0.9757417519625003  0.05851599899711474  1.0000
  C   C1576     1.0  0.594427484994787  0.9702099247124457  0.07317398125332997  1.0000
  H   H1229     1.0  0.5782522770873041  0.9809747718517517  0.04013029486280889  1.0000
  H   H1230     1.0  0.5680026156132564  0.9896693692213725  0.0667818644026575  1.0000
  H   H1231     1.0  0.6029154395209154  0.9577208866431718  0.06378383043003631  1.0000
  H   H1232     1.0  0.5900239763443542  0.9642417689705349  0.09133526372203021  1.0000
  C   C1577     1.0  0.5404300674595932  0.8277924007264685  0.4740286308226384  1.0000
  C   C1578     1.0  0.5337400474124351  0.8292828229884774  0.00081953410475466  1.0000
  H   H1233     1.0  0.5464441442968382  0.8121178749174547  0.47030580739642436  1.0000
  H   H1234     1.0  0.5543028508178013  0.8376933456231818  0.4715957330572617  1.0000
  H   H1235     1.0  0.5205837972479754  0.8185826156681109  0.0033086733546404674  1.0000
  H   H1236     1.0  0.5451633604638515  0.8216889960224625  0.012598146957277295  1.0000
  C   C1579     1.0  0.5608584062281124  0.847508146090606  0.24177125645592604  1.0000
  C   C1580     1.0  0.5673777521949779  0.8609598264510446  0.2205573313473877  1.0000
  H   H1237     1.0  0.5511493551304008  0.8347472077221645  0.23514383249103332  1.0000
  H   H1238     1.0  0.5746732106396987  0.8409534936077527  0.2500441974030683  1.0000
  H   H1239     1.0  0.5805785525484803  0.8533799207867948  0.21149338113424673  1.0000
  H   H1240     1.0  0.5736967410485074  0.8757408285723705  0.22747866242487627  1.0000
  C   C1581     1.0  0.26798350928633785  0.9610459552161068  0.02377200553298364  1.0000
  C   C1582     1.0  0.25772762738646054  0.9492638380132185  0.04441535170997016  1.0000
  H   H1241     1.0  0.2601965186592234  0.9762243226899636  0.021539762870403843  1.0000
  H   H1242     1.0  0.26376770505225633  0.9528097518055769  0.006542136474996846  1.0000
  H   H1243     1.0  0.2634974822262426  0.9533353049954808  0.06271469795193303  1.0000
  H   H1244     1.0  0.2607340948943599  0.9323964360175041  0.04246268365264357  1.0000
  C   C1583     1.0  0.4420362192237791  0.07191479607903978  0.45991746093516633  1.0000
  C   C1584     1.0  0.4545857504887725  0.08012579048856254  0.43779278662586807  1.0000
  H   H1245     1.0  0.43434571780662184  0.08522278776739642  0.468569578342386  1.0000
  H   H1246     1.0  0.4532237420226616  0.06580096534771114  0.47377100853875814  1.0000
  H   H1247     1.0  0.44400493947874436  0.08790871057346103  0.4252872204090585  1.0000
  H   H1248     1.0  0.4613076545570034  0.06731146690570441  0.42693636587417955  1.0000
  C   C1585     1.0  0.4231098311360792  0.9282278427239051  0.38370299245961803  1.0000
  C   C1586     1.0  0.4305982933856031  0.9148356920294977  0.4052235243708026  1.0000
  H   H1249     1.0  0.412489335314047  0.9186305301786322  0.37244018162631554  1.0000
  H   H1250     1.0  0.43677462520508725  0.9304841306399022  0.3718541816425597  1.0000
  H   H1251     1.0  0.43707398017085236  0.9253957593763635  0.41959775926646237  1.0000
  H   H1252     1.0  0.4164687552907978  0.9079896845149525  0.41372868822172437  1.0000
  C   C1587     1.0  0.43556184649188734  0.9441463940302028  0.04009328433751904  1.0000
  C   C1588     1.0  0.4183102202572119  0.9327741514647779  0.054405472176075206  1.0000
  H   H1253     1.0  0.43542283360860934  0.9604050287257512  0.046266785095180396  1.0000
  H   H1254     1.0  0.43187818012770357  0.9441732213190388  0.020829305924153642  1.0000
  H   H1255     1.0  0.42214862635656003  0.9320198564825353  0.07379318185536059  1.0000
  H   H1256     1.0  0.41693495165965166  0.916449998449191  0.047821771429784714  1.0000
  C   C1589     1.0  0.2654836711150722  0.977374646446229  0.23973023484067713  1.0000
  C   C1590     1.0  0.2784689236853258  0.9577640986955623  0.23852557852732129  1.0000
  H   H1257     1.0  0.270900137170965  0.9878265212797721  0.2256208791946408  1.0000
  H   H1258     1.0  0.26758333783306265  0.9855656814082068  0.25696552848055687  1.0000
  H   H1259     1.0  0.2739667814517633  0.9472477485719311  0.25345315706089294  1.0000
  H   H1260     1.0  0.2755060310751685  0.9490448172754816  0.22160052017295936  1.0000
  C   C1591     1.0  0.44549742529061653  0.09799835441722296  0.2177706565020345  1.0000
  C   C1592     1.0  0.453326246593767  0.11297806703404974  0.1986993505291486  1.0000
  H   H1261     1.0  0.4358897765683914  0.10573442036612862  0.2311543155737601  1.0000
  H   H1262     1.0  0.4581465476986752  0.09187635660195126  0.22830051379528316  1.0000
  H   H1263     1.0  0.43992922633400205  0.12266820785931921  0.1933219389135061  1.0000
  H   H1264     1.0  0.457546453762532  0.10499426794313066  0.18147494233788353  1.0000
  C   C1593     1.0  0.4449595169752375  0.9623301039934354  0.1318084502162009  1.0000
  C   C1594     1.0  0.4549652096194402  0.955093017068262  0.15567933190743438  1.0000
  H   H1265     1.0  0.4359804255246823  0.9490520058888311  0.12453660769332028  1.0000
  H   H1266     1.0  0.45628183347736484  0.9656132620361734  0.11810802458978871  1.0000
  H   H1267     1.0  0.4427847780723733  0.9533539792545729  0.16946684112276392  1.0000
  H   H1268     1.0  0.4654544617331152  0.9676620463581488  0.1621311373013439  1.0000
  C   C1595     1.0  0.3419893787502471  0.054272127691092124  0.3288657308218279  1.0000
  C   C1596     1.0  0.3340678975992844  0.0431038885869494  0.3517505722927167  1.0000
  H   H1269     1.0  0.3306759109657141  0.06522704878235223  0.3220514399890502  1.0000
  H   H1270     1.0  0.3551494327930842  0.06470503533578024  0.3333977059283984  1.0000
  H   H1271     1.0  0.3204138132323508  0.03339724712757244  0.34628970557102845  1.0000
  H   H1272     1.0  0.3268040551136219  0.05532991725355172  0.3635485843495733  1.0000
  C   C1597     1.0  0.34480456541561305  0.06985810079109973  0.09453921409761208  1.0000
  C   C1598     1.0  0.35285140764223033  0.06951869062022807  0.06783212876982869  1.0000
  H   H1273     1.0  0.3296298019131742  0.06233579048268078  0.09602798061981052  1.0000
  H   H1274     1.0  0.3415781570408873  0.0855931782171733  0.10170093216534105  1.0000
  H   H1275     1.0  0.3683433350047735  0.07650024973603355  0.06696238142551729  1.0000
  H   H1276     1.0  0.3442101856910325  0.08015517220475399  0.05665386158743341  1.0000
  C   C1599     1.0  0.44350398215237236  0.9445733307113736  0.2796671315664322  1.0000
  C   C1600     1.0  0.4237421584147629  0.931236751775646  0.28094617177865483  1.0000
  H   H1277     1.0  0.44220394752214015  0.9590062345224406  0.2909390136069136  1.0000
  H   H1278     1.0  0.4450870772883059  0.9501667735222767  0.2611437265071509  1.0000
  H   H1279     1.0  0.425350617162251  0.917035304252625  0.2685222464264552  1.0000
  H   H1280     1.0  0.42267502842397886  0.9243463679152142  0.29919018365682654  1.0000
  C   C1601     1.0  0.43409733870398004  0.08007412765098122  0.7059853441352283  1.0000
  C   C1602     1.0  0.4136557313317747  0.0833389473643949  0.7010397219813007  1.0000
  C   C1603     1.0  0.40292421367629916  0.06869440193265428  0.688421672795473  1.0000
  C   C1604     1.0  0.4119443709786728  0.0502973649061863  0.6806935485514944  1.0000
  C   C1605     1.0  0.4320125454240366  0.04694910555940858  0.6868995242308562  1.0000
  C   C1606     1.0  0.44317212493045893  0.06186124601624099  0.6989442731229785  1.0000
  H   H1281     1.0  0.4070476223464982  0.09791623526135297  0.7064443472184798  1.0000
  H   H1282     1.0  0.38687500012290543  0.07206497704864831  0.6856422549158628  1.0000
  H   H1283     1.0  0.43964991769418693  0.032321264971739996  0.6829934624196287  1.0000
  H   H1284     1.0  0.45906793548784364  0.058929614130311066  0.7035451894041086  1.0000
  C   C1607     1.0  0.4264446646262523  0.01733928899030264  0.6405532753607888  1.0000
  C   C1608     1.0  0.4088774118288942  0.014134593884174547  0.6538759759202722  1.0000
  C   C1609     1.0  0.40077379787149225  0.9941798139964814  0.6541109201862053  1.0000
  C   C1610     1.0  0.412050202830097  0.9779015198047685  0.6459602591118343  1.0000
  C   C1611     1.0  0.43110946462769145  0.980993485406417  0.6365860736131757  1.0000
  C   C1612     1.0  0.43798139162981337  0.0010046691608029679  0.6326836402848197  1.0000
  C   C1613     1.0  0.3975250911501391  0.03272183292001098  0.6682779687098994  1.0000
  C   C1614     1.0  0.38403816102775845  0.041591721618743235  0.6471195593892958  1.0000
  C   C1615     1.0  0.36532520355165143  0.032750169837111966  0.6400815725874869  1.0000
  C   C1616     1.0  0.3529181901968979  0.04173395790830908  0.6235101098889578  1.0000
  C   C1617     1.0  0.3589780641283925  0.05939525014449927  0.6122648971975823  1.0000
  C   C1618     1.0  0.37803528759387006  0.06736998324515735  0.6170503218327308  1.0000
  C   C1619     1.0  0.39083434785966453  0.05808086562812572  0.6338814024807194  1.0000
  C   C1620     1.0  0.39989197196363774  0.012936229541203336  0.7077397156036245  1.0000
  C   C1621     1.0  0.3919634644474195  0.004781508279900548  0.7285508791134203  1.0000
  C   C1622     1.0  0.3708558702635614  0.004159090972332049  0.7325512814793083  1.0000
  C   C1623     1.0  0.3594079144184894  0.017623406022786683  0.7186469351155147  1.0000
  C   C1624     1.0  0.3678322522198145  0.027700241727541937  0.6990186570218453  1.0000
  C   C1625     1.0  0.3879311450480565  0.024490454197455568  0.6927522671026722  1.0000
  C   C1626     1.0  0.3611552474735542  0.9910355469045449  0.7545816152339462  1.0000
  C   C1627     1.0  0.40535192313960966  0.9446278671113048  0.7738597447305106  1.0000
  C   C1628     1.0  0.396615561055994  0.95686161115675  0.7917209516657333  1.0000
  C   C1629     1.0  0.38210612958719037  0.9708791898995555  0.7860877320076464  1.0000
  C   C1630     1.0  0.37614954326307465  0.9731339269591242  0.762183286849851  1.0000
  C   C1631     1.0  0.38447556564100466  0.9597931358928752  0.7444164204692886  1.0000
  C   C1632     1.0  0.398815333028583  0.9455549046275639  0.7503834605515586  1.0000
  C   C1633     1.0  0.3409733354718526  0.9777048995769889  0.7486544884632633  1.0000
  C   C1634     1.0  0.3312177023920548  0.977575026243227  0.7262703776286489  1.0000
  C   C1635     1.0  0.3118170885616956  0.9705349673247834  0.7230845696674248  1.0000
  C   C1636     1.0  0.3011783406460606  0.962868524353198  0.742210302883384  1.0000
  C   C1637     1.0  0.31048092664488514  0.960940826100392  0.7641444818419257  1.0000
  C   C1638     1.0  0.33018713709135866  0.9686423733154532  0.7678146922665022  1.0000
  C   C1639     1.0  0.3370347020351908  0.016024877605643802  0.7777966486461463  1.0000
  C   C1640     1.0  0.33274694897630896  0.030832305390554884  0.7946291806872836  1.0000
  C   C1641     1.0  0.34790478013136567  0.03898537114778861  0.8088002205421363  1.0000
  C   C1642     1.0  0.3677084450757689  0.03328908212594345  0.8046274652398496  1.0000
  C   C1643     1.0  0.3720566331170702  0.01867778913726607  0.7870238805885071  1.0000
  C   C1644     1.0  0.3564281526001159  0.008731420995828463  0.7744620728871885  1.0000
  H   H1285     1.0  0.43262151942608973  0.03266606082029226  0.6381778890489261  1.0000
  H   H1286     1.0  0.3861680108667575  0.9913204363949685  0.6623265311039771  1.0000
  H   H1287     1.0  0.405736794914588  0.9625725109248537  0.6478731952817174  1.0000
  H   H1288     1.0  0.45244509277735256  0.003841681279368836  0.623208401538188  1.0000
  H   H1289     1.0  0.358918920427634  0.019108499440062612  0.6491170392100861  1.0000
  H   H1290     1.0  0.33862015623799857  0.03418048236658108  0.6193789007155504  1.0000
  H   H1291     1.0  0.38293871728440276  0.08090688935481194  0.607784809396075  1.0000
  H   H1292     1.0  0.40633461096083107  0.06348473179591924  0.6359113572232102  1.0000
  H   H1293     1.0  0.4157257424331386  0.009448547303273009  0.7035959881643102  1.0000
  H   H1294     1.0  0.40301991256396635  0.9970588661351001  0.7398808168798465  1.0000
  H   H1295     1.0  0.34362142169678717  0.01991308257721724  0.7233040928811538  1.0000
  H   H1296     1.0  0.357985501487916  0.03679542280288797  0.6878737718818683  1.0000
  H   H1297     1.0  0.4016834662143586  0.9557259654368813  0.8102425424835789  1.0000
  H   H1298     1.0  0.37591593969997666  0.9805002613719642  0.8009100845379429  1.0000
  H   H1299     1.0  0.38020214891733217  0.9616889342659374  0.7260290835176907  1.0000
  H   H1300     1.0  0.40584704364027624  0.9366721546165928  0.7357933309250414  1.0000
  H   H1301     1.0  0.33906452617018557  0.9837211541624451  0.7113228424392837  1.0000
  H   H1302     1.0  0.3043913900743689  0.9709340566757657  0.7058692326833386  1.0000
  H   H1303     1.0  0.30157866736726263  0.9549276070188737  0.7794693792499325  1.0000
  H   H1304     1.0  0.3364918857632621  0.968309839035982  0.7856359858901379  1.0000
  H   H1305     1.0  0.3240836021240848  0.011397142261071188  0.7665900792973529  1.0000
  H   H1306     1.0  0.3169470970914882  0.03481751851949345  0.7979292858589616  1.0000
  H   H1307     1.0  0.38009893468085293  0.03922440104809489  0.8151518798087909  1.0000
  H   H1308     1.0  0.38772726508148503  0.013490793936624518  0.7843460602293006  1.0000
  C   C1645     1.0  0.42734871186870915  0.054967718796541436  0.951962012239285  1.0000
  C   C1646     1.0  0.40700352074957385  0.05912704859372253  0.9479071826303238  1.0000
  C   C1647     1.0  0.394760956339663  0.044007711182054134  0.9379669538037027  1.0000
  C   C1648     1.0  0.4019419954769371  0.024092391607822415  0.9333424523839075  1.0000
  C   C1649     1.0  0.42229544656264784  0.020298655465370904  0.938728935206729  1.0000
  C   C1650     1.0  0.43476273187242576  0.03549383286417468  0.9479670525977044  1.0000
  H   H1309     1.0  0.4007482193309497  0.07384325845153557  0.9529870586504989  1.0000
  H   H1310     1.0  0.37871320096396316  0.047179501351398374  0.9362688238198156  1.0000
  H   H1311     1.0  0.42825779743760445  0.004522319443518771  0.9383425017809085  1.0000
  H   H1312     1.0  0.45045797157750267  0.032479862796698844  0.9523085323535183  1.0000
  C   C1651     1.0  0.41455207160608504  0.9859400513974248  0.8966530478281929  1.0000
  C   C1652     1.0  0.3972748676804901  0.9853978046520353  0.9117765644368285  1.0000
  C   C1653     1.0  0.3878533271230182  0.9663649023147367  0.914755548874374  1.0000
  C   C1654     1.0  0.3956797184347553  0.9485765127668484  0.9051382550233211  1.0000
  C   C1655     1.0  0.41352213367122326  0.9486300498214165  0.8918815928521  1.0000
  C   C1656     1.0  0.42253372600900113  0.9676952053218804  0.8877233514812994  1.0000
  C   C1657     1.0  0.387117832613085  0.005487021089272286  0.9246740068037659  1.0000
  C   C1658     1.0  0.3731240732173577  0.013260717278058694  0.9031008618909437  1.0000
  C   C1659     1.0  0.3533994760681888  0.006195282534169755  0.8985126452998642  1.0000
  C   C1660     1.0  0.341361337899578  0.01526678660368688  0.8812138532097321  1.0000
  C   C1661     1.0  0.34915276671218265  0.030645765707323316  0.8672024666012278  1.0000
  C   C1662     1.0  0.36936332139889216  0.03575973455375294  0.8689550238281883  1.0000
  C   C1663     1.0  0.3811689364425216  0.027455275762557164  0.8871899644991811  1.0000
  C   C1664     1.0  0.3889605009248918  0.9903411329152269  0.9668805195656778  1.0000
  C   C1665     1.0  0.3821834723579876  0.9870781121322166  0.9900919244950063  1.0000
  C   C1666     1.0  0.36273011012714623  0.9920843247580734  0.9973398190309347  1.0000
  C   C1667     1.0  0.3505181240649214  0.0025561929482106386  0.9809554046244344  1.0000
  C   C1668     1.0  0.35784701724254225  0.0065229993635211566  0.9579326808044265  1.0000
  C   C1669     1.0  0.3769552451516429  0.00028480517923713236  0.9501314426305862  1.0000
  C   C1670     1.0  0.35400117656105173  0.9865752886959184  0.5239521597075563  1.0000
  C   C1671     1.0  0.3981749808515748  0.9432451937878175  0.5511356648363747  1.0000
  C   C1672     1.0  0.3926638069961392  0.9599578731974671  0.5655674111855484  1.0000
  C   C1673     1.0  0.3769256931364062  0.9725685525188911  0.5587962992989423  1.0000
  C   C1674     1.0  0.3670921115216534  0.9695253384618352  0.5368777228167482  1.0000
  C   C1675     1.0  0.37131243019750687  0.9511707698105133  0.5241814798250385  1.0000
  C   C1676     1.0  0.3868023766948218  0.938521786722329  0.5308531712809641  1.0000
  C   C1677     1.0  0.33195436390963107  0.9757695169003697  0.5246934587582147  1.0000
  C   C1678     1.0  0.3220651193330125  0.9678134494884634  0.5040252987217724  1.0000
  C   C1679     1.0  0.3019560465715812  0.9623171330013662  0.5042919922128315  1.0000
  C   C1680     1.0  0.29090948755198426  0.9644183398574572  0.5251560903243377  1.0000
  C   C1681     1.0  0.30038479629953924  0.9709902474208507  0.546048350426313  1.0000
  C   C1682     1.0  0.3208884194263674  0.9758957887852465  0.5459848519760606  1.0000
  C   C1683     1.0  0.3350881444243049  0.020707487825454063  0.5372801215672035  1.0000
  C   C1684     1.0  0.335356651251914  0.04012762784529735  0.5473297491524021  1.0000
  C   C1685     1.0  0.35323131435980865  0.048475968424163504  0.5558225761615604  1.0000
  C   C1686     1.0  0.37111730688624894  0.037912214254052536  0.554229853605092  1.0000
  C   C1687     1.0  0.37136421999395813  0.018216591541777873  0.5436981820704075  1.0000
  C   C1688     1.0  0.3531566140997505  0.008889631753333741  0.536440490630726  1.0000
  H   H1313     1.0  0.4221502337933825  0.00041149892824292686  0.8923968374198604  1.0000
  H   H1314     1.0  0.37301112695870237  0.964349429110165  0.9244073133127068  1.0000
  H   H1315     1.0  0.38713807538181755  0.9345294526943264  0.9066604035879379  1.0000
  H   H1316     1.0  0.4368186069727298  0.9681453595323242  0.8784816056074524  1.0000
  H   H1317     1.0  0.3466224086943894  0.9947625139637254  0.9104576109130188  1.0000
  H   H1318     1.0  0.3254825398909514  0.010806120018131466  0.8797080328180374  1.0000
  H   H1319     1.0  0.37624506757644127  0.04766938427022777  0.8576087578888402  1.0000
  H   H1320     1.0  0.39707278206998425  0.03263577601291261  0.8883528932595139  1.0000
  H   H1321     1.0  0.4043315833528189  0.9860666991839795  0.9623304020447496  1.0000
  H   H1322     1.0  0.3930968348238773  0.9802297234505153  0.5020387043495967  1.0000
  H   H1323     1.0  0.3355458264619971  0.007355934913823349  0.9863636583444849  1.0000
  H   H1324     1.0  0.34868117581614333  0.016606570200139063  0.9465610154849774  1.0000
  H   H1325     1.0  0.4007180008612959  0.9627337044413584  0.5822820175333603  1.0000
  H   H1326     1.0  0.3728120501802517  0.9853617974227001  0.5706679695580914  1.0000
  H   H1327     1.0  0.3638645073898479  0.9480073441654099  0.5077517506308579  1.0000
  H   H1328     1.0  0.39063629672000494  0.9258002933442893  0.5193791827445372  1.0000
  H   H1329     1.0  0.33101290705200354  0.9656789006674563  0.9877823951472624  1.0000
  H   H1330     1.0  0.2944079372015545  0.9566275526999661  0.9878948781162806  1.0000
  H   H1331     1.0  0.29140257948426856  0.9728844640307952  0.5624182509013271  1.0000
  H   H1332     1.0  0.3275689315308104  0.9816649701730655  0.5626851258165299  1.0000
  H   H1333     1.0  0.3211781624533734  0.014327671512611212  0.5303257712955838  1.0000
  H   H1334     1.0  0.3214695443008502  0.04867292594202233  0.5483878147577471  1.0000
  H   H1335     1.0  0.3853903123916573  0.0452230731652028  0.5600116596367691  1.0000
  H   H1336     1.0  0.38542217216132046  0.009965430523557587  0.5415622756280676  1.0000
  C   C1689     1.0  0.5295384960551762  0.850745938508503  0.5116170596160523  1.0000
  C   C1690     1.0  0.5456696020512214  0.8619668052668467  0.5217418693663494  1.0000
  C   C1691     1.0  0.5415801030270774  0.879938875827527  0.5347722956305292  1.0000
  C   C1692     1.0  0.5215727642388148  0.8875546945017632  0.5367318578053117  1.0000
  C   C1693     1.0  0.5061652448679567  0.8756524021437903  0.5261303379753499  1.0000
  C   C1694     1.0  0.5098958918092716  0.8574291045521033  0.5141552559543614  1.0000
  H   H1337     1.0  0.5609322229528979  0.8559854434451236  0.5213447319160578  1.0000
  H   H1338     1.0  0.554607710555203  0.8878306933041946  0.5427070619740427  1.0000
  H   H1339     1.0  0.4906303367457868  0.8799803283618667  0.528790741616773  1.0000
  H   H1340     1.0  0.4973206130437501  0.848171163571083  0.5081786366773106  1.0000
  C   C1695     1.0  0.4875932759901216  0.9202790305120478  0.5279340568107992  1.0000
  C   C1696     1.0  0.49541780210110736  0.9182079382993398  0.5510355187091198  1.0000
  C   C1697     1.0  0.4845072512635455  0.9266912459713532  0.5705251887570958  1.0000
  C   C1698     1.0  0.4655981584742933  0.9356569321394353  0.5666004402590799  1.0000
  C   C1699     1.0  0.4568401267829339  0.935273313502112  0.5439100854701063  1.0000
  C   C1700     1.0  0.46810417604696714  0.9279186326406922  0.5244430934400774  1.0000
  C   C1701     1.0  0.5162437171452161  0.906084885411246  0.5551552981614818  1.0000
  C   C1702     1.0  0.5317254718786386  0.9256303733538925  0.5561016064943829  1.0000
  C   C1703     1.0  0.5332451089257187  0.9384481474350377  0.5764075037643149  1.0000
  C   C1704     1.0  0.54753044322217  0.9539097932588154  0.577894274620934  1.0000
  C   C1705     1.0  0.5593607025840202  0.9584406387525571  0.5576905191438363  1.0000
  C   C1706     1.0  0.5575940219796672  0.9463353228838018  0.5368234769978184  1.0000
  C   C1707     1.0  0.5431616563464897  0.9304812297653462  0.5358517692848165  1.0000
  C   C1708     1.0  0.49623456786715875  0.88171632681796  0.5834737927325221  1.0000
  C   C1709     1.0  0.4923692941990545  0.8741949425302296  0.6062401642376546  1.0000
  C   C1710     1.0  0.5064594580226656  0.8767367542333493  0.6247314572235226  1.0000
  C   C1711     1.0  0.5255671418799083  0.8837311469351019  0.6188320883468073  1.0000
  C   C1712     1.0  0.5294916387777888  0.8919432422107733  0.5965452208531505  1.0000
  C   C1713     1.0  0.5142267854887383  0.8928305542298489  0.5794156974889765  1.0000
  C   C1714     1.0  0.4993756796362521  0.8755476956405424  0.6521887313849998  1.0000
  C   C1715     1.0  0.46637835210323986  0.9348082554871099  0.6527899709968162  1.0000
  C   C1716     1.0  0.4559334347272219  0.9162767810569125  0.649718097397759  1.0000
  C   C1717     1.0  0.46651222691897837  0.8983946983878379  0.6500744144157454  1.0000
  C   C1718     1.0  0.4875610101518953  0.8976420235779481  0.6542531567147702  1.0000
  C   C1719     1.0  0.49783429675658997  0.916376542643879  0.6557713139482283  1.0000
  C   C1720     1.0  0.487375438152721  0.9346298276741675  0.6557446445991223  1.0000
  C   C1721     1.0  0.5182046274750706  0.872230903337334  0.6702406150951227  1.0000
  C   C1722     1.0  0.5313230719759393  0.8557743207184286  0.6670611569789239  1.0000
  C   C1723     1.0  0.5472950635143986  0.852616950693463  0.6829390351765554  1.0000
  C   C1724     1.0  0.5503892211771025  0.8654656629877775  0.7023169479520877  1.0000
  C   C1725     1.0  0.5373648017604074  0.8815734867226545  0.7059345453750265  1.0000
  C   C1726     1.0  0.520651914273874  0.884309883959087  0.6908636417680285  1.0000
  C   C1727     1.0  0.474127882744868  0.856927258885974  0.6802824414421473  1.0000
  C   C1728     1.0  0.461260633673878  0.841128986772451  0.686006917444454  1.0000
  C   C1729     1.0  0.4599668510190841  0.8232880859840572  0.6719343908995639  1.0000
  C   C1730     1.0  0.4718352278234862  0.822113585804531  0.65157515493142  1.0000
  C   C1731     1.0  0.48479897978179903  0.8380779897666527  0.6452394609894003  1.0000
  C   C1732     1.0  0.4857314429349678  0.8564847086126944  0.6592034958964309  1.0000
  H   H1341     1.0  0.4967446690832323  0.91601266076995  0.5122747765637644  1.0000
  H   H1342     1.0  0.4912229590098353  0.9278473687899546  0.5885527616319793  1.0000
  H   H1343     1.0  0.45782893117039863  0.943810109635132  0.5810374479084175  1.0000
  H   H1344     1.0  0.46137799262183243  0.9284735456934177  0.5064055834855116  1.0000
  H   H1345     1.0  0.5240459599884164  0.9349626748929576  0.5921852358346917  1.0000
  H   H1346     1.0  0.5485836518073054  0.9631679909407115  0.5945408469149042  1.0000
  H   H1347     1.0  0.567491595639166  0.9485534020286918  0.5207861269779822  1.0000
  H   H1348     1.0  0.5421882137484225  0.921337654264004  0.5194815059615151  1.0000
  H   H1349     1.0  0.4845713361030286  0.8809327601223917  0.5696238736118019  1.0000
  H   H1350     1.0  0.47728025502102694  0.8690000546779909  0.6114869504699212  1.0000
  H   H1351     1.0  0.5375886975943219  0.8846279172656213  0.6324994947790883  1.0000
  H   H1352     1.0  0.544280207729859  0.8989844074563019  0.5932608995819637  1.0000
  H   H1353     1.0  0.4396769749044671  0.9162366433362287  0.6467875532065487  1.0000
  H   H1354     1.0  0.458071289226283  0.8844714055986609  0.6456619978197927  1.0000
  H   H1355     1.0  0.5143372625794493  0.916555041356988  0.6564502030934959  1.0000
  H   H1356     1.0  0.49618833453053873  0.9488713545978819  0.6584545770317423  1.0000
  H   H1357     1.0  0.5299785375886928  0.8451717994400748  0.6521553493425815  1.0000
  H   H1358     1.0  0.5582526199336407  0.8404032745587401  0.6800609225628391  1.0000
  H   H1359     1.0  0.5383086019239921  0.8910696986224875  0.7223951579218296  1.0000
  H   H1360     1.0  0.5091100622994734  0.8956694503210829  0.6953684032530624  1.0000
  H   H1361     1.0  0.4746565112092834  0.8698335401850071  0.6927958088971309  1.0000
  H   H1362     1.0  0.4527625251248554  0.8429214444714446  0.7026090408232476  1.0000
  H   H1363     1.0  0.4716428706080683  0.8079025449256266  0.6405295087979801  1.0000
  H   H1364     1.0  0.4945072025520973  0.8364934592186186  0.6292099122077378  1.0000
  C   C1733     1.0  0.5488578617339827  0.8591497367372493  0.7617206552837279  1.0000
  C   C1734     1.0  0.558792200971146  0.8690351128567484  0.7806939922190819  1.0000
  C   C1735     1.0  0.5487691737842793  0.8824455129417473  0.7959045924166347  1.0000
  C   C1736     1.0  0.5282770656796342  0.8863149096681511  0.7920729145042741  1.0000
  C   C1737     1.0  0.5180798808054488  0.874607654083325  0.7742770202607393  1.0000
  C   C1738     1.0  0.5284994056301419  0.8606837761818826  0.7598719432606713  1.0000
  H   H1365     1.0  0.5751067524340546  0.8673218382449369  0.782041973605864  1.0000
  H   H1366     1.0  0.557847469510463  0.8900373086807241  0.8100847034786663  1.0000
  H   H1367     1.0  0.5021483250794115  0.8764875253734313  0.7717679243550599  1.0000
  H   H1368     1.0  0.521225291761774  0.8529196049607007  0.7447756402735725  1.0000
  C   C1739     1.0  0.4943033660243582  0.917756289493851  0.7787908529529519  1.0000
  C   C1740     1.0  0.49762480385476854  0.9127574091844581  0.8027823816996646  1.0000
  C   C1741     1.0  0.4827588208255443  0.9191916200399538  0.8194226041486096  1.0000
  C   C1742     1.0  0.46542363803871417  0.9295286336700858  0.812062226643663  1.0000
  C   C1743     1.0  0.46240605161766474  0.9328990578092297  0.7876661220567721  1.0000
  C   C1744     1.0  0.47708923785360957  0.927408047693088  0.7711311256111023  1.0000
  C   C1745     1.0  0.5177327177048503  0.9017179540438182  0.811347415517967  1.0000
  C   C1746     1.0  0.5318465214495618  0.9212106228095398  0.8185826103638449  1.0000
  C   C1747     1.0  0.5327392061938961  0.9299482802951887  0.841701488979949  1.0000
  C   C1748     1.0  0.5471717797655454  0.9446313623705239  0.847390950122545  1.0000
  C   C1749     1.0  0.5600412455688538  0.9517509640519788  0.8298145790927393  1.0000
  C   C1750     1.0  0.5578473401851698  0.9444929388279738  0.8062167407375902  1.0000
  C   C1751     1.0  0.5436754044632617  0.9300077695911358  0.8004565241789987  1.0000
  C   C1752     1.0  0.496602267895845  0.872178239469183  0.8281055636602375  1.0000
  C   C1753     1.0  0.48995481011722425  0.8595152669677072  0.8454188696818555  1.0000
  C   C1754     1.0  0.4999436124417471  0.858496452264662  0.8671933953940489  1.0000
  C   C1755     1.0  0.5169493661215543  0.8710180930535577  0.8707493086081717  1.0000
  C   C1756     1.0  0.5238029574564312  0.8834801674813388  0.8525778663874309  1.0000
  C   C1757     1.0  0.5125976360163426  0.8855395305350066  0.831628820528516  1.0000
  C   C1758     1.0  0.4891802117441429  0.8464020306151826  0.8892872275989391  1.0000
  C   C1759     1.0  0.44629089384768805  0.8978189283435304  0.9002398031467237  1.0000
  C   C1760     1.0  0.44042580413971494  0.8809624930646222  0.8863626704044667  1.0000
  C   C1761     1.0  0.4532451292486786  0.8641004754563236  0.8843506766521902  1.0000
  C   C1762     1.0  0.47217208742084876  0.8635912988931539  0.8962502862294505  1.0000
  C   C1763     1.0  0.47801924837022103  0.8815252687877084  0.9091967131151538  1.0000
  C   C1764     1.0  0.4650760150540777  0.8979877438897452  0.9116531960191957  1.0000
  C   C1765     1.0  0.5023759523852904  0.8408088175131684  0.9120414436864519  1.0000
  C   C1766     1.0  0.5229248600952912  0.8356924386040311  0.9102580443550833  1.0000
  C   C1767     1.0  0.5342252944865841  0.831007361770657  0.9303380685662611  1.0000
  C   C1768     1.0  0.5256339418141568  0.8313125994124457  0.952929002924554  1.0000
  C   C1769     1.0  0.5051463116334771  0.8340735260240961  0.9551695910977385  1.0000
  C   C1770     1.0  0.49373416455807434  0.839696545335681  0.9354977712096104  1.0000
  C   C1771     1.0  0.46388265832718734  0.8145805497570863  0.8919668621995815  1.0000
  C   C1772     1.0  0.4563877683142382  0.7957477938101296  0.884394218446649  1.0000
  C   C1773     1.0  0.46474818052836475  0.7856245013577208  0.8645609310707368  1.0000
  C   C1774     1.0  0.4814579622402717  0.7945952166851552  0.8536446403516676  1.0000
  C   C1775     1.0  0.4895748261017698  0.8130480981237833  0.8617506710867184  1.0000
  C   C1776     1.0  0.480373354945353  0.8241748169908318  0.8806441813988982  1.0000
  H   H1369     1.0  0.5055863720813284  0.9139944964380998  0.7652783827392863  1.0000
  H   H1370     1.0  0.48376050221821326  0.9163887652534218  0.8384594395342156  1.0000
  H   H1371     1.0  0.4545831416190506  0.9341289651534037  0.825808734002544  1.0000
  H   H1372     1.0  0.4757254524537141  0.930483867596193  0.7519872499807854  1.0000
  H   H1373     1.0  0.5229894219309891  0.9247746652410526  0.8562879901235946  1.0000
  H   H1374     1.0  0.5493444502241521  0.9496381676205108  0.8657837297984504  1.0000
  H   H1375     1.0  0.567413506064716  0.9510149234405907  0.7920692860214026  1.0000
  H   H1376     1.0  0.5416046945579284  0.9249273818123729  0.7820945866075016  1.0000
  H   H1377     1.0  0.4870556985366964  0.8720956826843708  0.812005985159154  1.0000
  H   H1378     1.0  0.4761485514114979  0.8507369055533931  0.8410955323403995  1.0000
  H   H1379     1.0  0.5246477670756651  0.8719553046421639  0.8884236486755093  1.0000
  H   H1380     1.0  0.5377668027752568  0.8922167226720887  0.8552484297808944  1.0000
  H   H1381     1.0  0.4262168957171315  0.8805521719271908  0.8761575623282222  1.0000
  H   H1382     1.0  0.44900769310164107  0.8509810271722831  0.8729735686084339  1.0000
  H   H1383     1.0  0.49298482314027586  0.8823423042797132  0.9178633444538596  1.0000
  H   H1384     1.0  0.47042013344141553  0.9111585769979238  0.9213140316647073  1.0000
  H   H1385     1.0  0.530613732054718  0.8350138159282372  0.893140676408529  1.0000
  H   H1386     1.0  0.5507878858641424  0.82901977945813  0.9282970469510122  1.0000
  H   H1387     1.0  0.4973187884292121  0.8319839398948579  0.9724193986691044  1.0000
  H   H1388     1.0  0.4774801420918544  0.8426515464338147  0.9388976596602562  1.0000
  H   H1389     1.0  0.4566129894468407  0.8225682646980411  0.9069488679762264  1.0000
  H   H1390     1.0  0.4435076497535908  0.7887662327895929  0.8943108621346051  1.0000
  H   H1391     1.0  0.48860021759829186  0.7871896871612458  0.8376902011654462  1.0000
  H   H1392     1.0  0.5027524435905497  0.8193862135276145  0.8515491914933455  1.0000
  C   C1777     1.0  0.4709790140403017  0.12575110020012908  0.7080826072349863  1.0000
  C   C1778     1.0  0.469666137223111  0.1465502330736412  0.7135815730268259  1.0000
  C   C1779     1.0  0.4874298441292242  0.15752269645106062  0.7193817028970043  1.0000
  C   C1780     1.0  0.5061387588832865  0.14770810144903787  0.7207986254583459  1.0000
  C   C1781     1.0  0.5071426447238423  0.12693224197203146  0.7146791890954708  1.0000
  C   C1782     1.0  0.48950863889485763  0.11601260477064322  0.7086649787358706  1.0000
  H   H1393     1.0  0.4552602082663164  0.1543733953805897  0.7130264151474781  1.0000
  H   H1394     1.0  0.48645429678905877  0.17437452036514206  0.7219071269756057  1.0000
  H   H1395     1.0  0.5216011107428358  0.11952591050219026  0.7151545203516444  1.0000
  H   H1396     1.0  0.4907500191612551  0.09994369611563492  0.7037302420305578  1.0000
  C   C1783     1.0  0.5413665480216152  0.13377747883224778  0.7552129712535964  1.0000
  C   C1784     1.0  0.5438650739855824  0.15047347012054463  0.7402182657869012  1.0000
  C   C1785     1.0  0.5634214660137293  0.158615496056475  0.7375168602890294  1.0000
  C   C1786     1.0  0.5801710057984216  0.14985611246476807  0.7483279250048235  1.0000
  C   C1787     1.0  0.5775690375501222  0.1313485069684736  0.7596850763927863  1.0000
  C   C1788     1.0  0.5582754838233164  0.12367412306629856  0.7638941165237885  1.0000
  C   C1789     1.0  0.5254942347615514  0.1615202809025893  0.7273897645945232  1.0000
  C   C1790     1.0  0.5205253873687644  0.17887552941789134  0.747306507076481  1.0000
  C   C1791     1.0  0.5300761853185922  0.19802052003131662  0.747103312035674  1.0000
  C   C1792     1.0  0.5259454917251223  0.21250614201763016  0.7643676335385262  1.0000
  C   C1793     1.0  0.5122131702071931  0.2084182119563004  0.7829726794624176  1.0000
  C   C1794     1.0  0.5037239109909091  0.1893005822448338  0.7843170323663281  1.0000
  C   C1795     1.0  0.5081416673308715  0.17456910746314566  0.7672286922827464  1.0000
  C   C1796     1.0  0.541688071450701  0.15515462501254298  0.6853610474933174  1.0000
  C   C1797     1.0  0.5463478465907959  0.16029651515802068  0.6620924939587618  1.0000
  C   C1798     1.0  0.542213377115522  0.17973514017274275  0.6531693288810372  1.0000
  C   C1799     1.0  0.5303981108971862  0.1924997869750066  0.6676858003052618  1.0000
  C   C1800     1.0  0.5247473261545325  0.1867167141467168  0.690771115454804  1.0000
  C   C1801     1.0  0.531397278897511  0.16869891878632118  0.7008365269404937  1.0000
  C   C1802     1.0  0.5485588219739005  0.18466486283312872  0.6253312454421904  1.0000
  C   C1803     1.0  0.6006267032645  0.14625183529419125  0.6042112980400255  1.0000
  C   C1804     1.0  0.5859389813122351  0.15054091689140398  0.5874901604230448  1.0000
  C   C1805     1.0  0.5706858125752912  0.1644894373846948  0.5931743602654772  1.0000
  C   C1806     1.0  0.5688119046109316  0.17352844160267158  0.6161174388864543  1.0000
  C   C1807     1.0  0.5855825963827228  0.17112004678421872  0.6311638502340694  1.0000
  C   C1808     1.0  0.6007457024687597  0.15741624466569537  0.6255101296477581  1.0000
  C   C1809     1.0  0.5545301841525172  0.20794485998187537  0.6187582487203711  1.0000
  C   C1810     1.0  0.5605220763483332  0.22232014879515138  0.6360719175902765  1.0000
  C   C1811     1.0  0.5621038585536856  0.24298350785369144  0.6311916081280369  1.0000
  C   C1812     1.0  0.5584017184623622  0.24963768161484678  0.6077697511921581  1.0000
  C   C1813     1.0  0.5548210999907693  0.23537621444552212  0.589618265627211  1.0000
  C   C1814     1.0  0.5534844698616191  0.21484369712057547  0.5948360239965053  1.0000
  C   C1815     1.0  0.5121323694815217  0.19088804630846817  0.6089780359883855  1.0000
  C   C1816     1.0  0.49425211941514186  0.1848025093178196  0.5979791972839885  1.0000
  C   C1817     1.0  0.49092340848903004  0.16413483449417812  0.5929346989718111  1.0000
  C   C1818     1.0  0.5060657027393641  0.15021685687359007  0.597692002864705  1.0000
  C   C1819     1.0  0.5239245786869801  0.15652310405128836  0.6076708750339082  1.0000
  C   C1820     1.0  0.5280960870643079  0.17697197124054173  0.6130722346365031  1.0000
  H   H1397     1.0  0.5259546802800809  0.1283104764155211  0.7595780361480755  1.0000
  H   H1398     1.0  0.5658300511163656  0.17206249447977837  0.7262467924899838  1.0000
  H   H1399     1.0  0.5953750386133424  0.15698406013888552  0.7467640488871838  1.0000
  H   H1400     1.0  0.5570031693949133  0.10907990698173668  0.7737182338985199  1.0000
  H   H1401     1.0  0.5412075714337453  0.2016248714978116  0.7335636282004717  1.0000
  H   H1402     1.0  0.5319157670360298  0.22755530263359272  0.7616879989378839  1.0000
  H   H1403     1.0  0.4933708104905623  0.185878128352645  0.7993788647661473  1.0000
  H   H1404     1.0  0.5017839021958614  0.1592628770108937  0.7686474290855237  1.0000
  H   H1405     1.0  0.5455991943396726  0.1397241379910932  0.6907928863520333  1.0000
  H   H1406     1.0  0.5541453510883622  0.1490236810643543  0.6505733308105841  1.0000
  H   H1407     1.0  0.5253577618458993  0.20719860709971433  0.6608767707726478  1.0000
  H   H1408     1.0  0.5150386937540447  0.19713587425682144  0.7013517715082542  1.0000
  H   H1409     1.0  0.5863266128805983  0.14325413221108457  0.5695268116949879  1.0000
  H   H1410     1.0  0.5585259548172886  0.16711326827285175  0.5797388138886884  1.0000
  H   H1411     1.0  0.5865317376810426  0.17896152204813073  0.6481504113731043  1.0000
  H   H1412     1.0  0.6131810789279903  0.15561087182295702  0.6380646803833337  1.0000
  H   H1413     1.0  0.5625020096051045  0.21823853789710232  0.6544545375141414  1.0000
  H   H1414     1.0  0.5654533717056841  0.2534315211327286  0.645718602152589  1.0000
  H   H1415     1.0  0.5526324163009699  0.2405036717248831  0.5710589385875013  1.0000
  H   H1416     1.0  0.5491413233311099  0.204353322584454  0.5800185699180851  1.0000
  H   H1417     1.0  0.5136073042214334  0.20676457145696822  0.6137596507165188  1.0000
  H   H1418     1.0  0.48239200645620134  0.19615503408732904  0.5953951732070116  1.0000
  H   H1419     1.0  0.5036316400372758  0.13386765498827805  0.5932910159897976  1.0000
  H   H1420     1.0  0.535543410317452  0.14503178136554526  0.6106826972414413  1.0000
  C   C1821     1.0  0.47187153658182407  0.09433279862419196  0.9466245139352296  1.0000
  C   C1822     1.0  0.4705137927032445  0.11522492750258262  0.9429162044405017  1.0000
  C   C1823     1.0  0.48610681921417553  0.1277577703374854  0.9503890649144664  1.0000
  C   C1824     1.0  0.5028753485760441  0.1202282439738878  0.962237875731525  1.0000
  C   C1825     1.0  0.5034022675367317  0.09932562104186787  0.966659182110513  1.0000
  C   C1826     1.0  0.48819948694679577  0.08606034418263263  0.9588978572482598  1.0000
  H   H1421     1.0  0.4577201973645456  0.12164811894132471  0.9339193811604846  1.0000
  H   H1422     1.0  0.48391321974229085  0.14420947166379838  0.9487036346206298  1.0000
  H   H1423     1.0  0.5153185547475898  0.09217102382834746  0.976171249958291  1.0000
  H   H1424     1.0  0.48805808919233085  0.06955010551511681  0.9627513060578498  1.0000
  C   C1827     1.0  0.5563852464987579  0.13191800076156607  0.9950085187859615  1.0000
  C   C1828     1.0  0.5425743005833944  0.1248379408413877  0.9777605254560313  1.0000
  C   C1829     1.0  0.5504484652948931  0.11180409716296993  0.9597632504131253  1.0000
  C   C1830     1.0  0.570122471575366  0.10486178265099384  0.9599845878682901  1.0000
  C   C1831     1.0  0.5833232104020478  0.11185870213887242  0.977731497593059  1.0000
  C   C1832     1.0  0.5765763417084655  0.1253959001965579  0.9955473484923874  1.0000
  C   C1833     1.0  0.520535463922292  0.1350165875471568  0.9730053986528603  1.0000
  C   C1834     1.0  0.5091078946274759  0.1439072174049779  0.9960353794386112  1.0000
  C   C1835     1.0  0.49729220578382555  0.16200093197472776  0.9949178067141727  1.0000
  C   C1836     1.0  0.48576989535577836  0.16824646747942792  0.5146843976115201  1.0000
  C   C1837     1.0  0.4838955438295018  0.15643987094404624  0.5348735303026455  1.0000
  C   C1838     1.0  0.49531750943171143  0.1385273630795258  0.5359744120058749  1.0000
  C   C1839     1.0  0.5082170690366772  0.13276390346692737  0.5173033639785501  1.0000
  C   C1840     1.0  0.5261070131413093  0.14870648149143473  0.9293366072937123  1.0000
  C   C1841     1.0  0.5341725134637042  0.16216989168162807  0.9132968987600094  1.0000
  C   C1842     1.0  0.5435779405020386  0.18018706341981106  0.9206228056776763  1.0000
  C   C1843     1.0  0.5459170112204951  0.1835336371130873  0.9453273313086492  1.0000
  C   C1844     1.0  0.5380545747206792  0.1696599858069669  0.961537578537315  1.0000
  C   C1845     1.0  0.527621831737285  0.15195971894667665  0.9538361236424424  1.0000
  C   C1846     1.0  0.5546121580798605  0.19432323151931308  0.9010543975513875  1.0000
  C   C1847     1.0  0.6021515619651414  0.14839884802381015  0.8909508869955464  1.0000
  C   C1848     1.0  0.5880422289017148  0.1508047853012152  0.8730025964714063  1.0000
  C   C1849     1.0  0.5732089182331512  0.1660208783192541  0.8751796861943385  1.0000
  C   C1850     1.0  0.5733744174011814  0.17965961511069653  0.8950873574691176  1.0000
  C   C1851     1.0  0.5887671518836292  0.1772014473001928  0.9124405768023228  1.0000
  C   C1852     1.0  0.6028953521769844  0.1619361741654021  0.9102979576666704  1.0000
  C   C1853     1.0  0.5586184365890712  0.2173513181170383  0.9108168307173026  1.0000
  C   C1854     1.0  0.543322007843543  0.22934907172745447  0.9214101864608035  1.0000
  C   C1855     1.0  0.5456318959734704  0.2501062815309045  0.9262306259556624  1.0000
  C   C1856     1.0  0.563750198946369  0.2593116177373549  0.9204885518114287  1.0000
  C   C1857     1.0  0.5798887753784817  0.24770823984525586  0.9116332393634021  1.0000
  C   C1858     1.0  0.5775516063463978  0.22712696986223294  0.9061270166058195  1.0000
  C   C1859     1.0  0.5486223754344763  0.20825266061309525  0.8578300953440048  1.0000
  C   C1860     1.0  0.5357192346932571  0.21629588958684706  0.8407453837432945  1.0000
  C   C1861     1.0  0.5150310183048494  0.21391694211708923  0.8426956932867546  1.0000
  C   C1862     1.0  0.5070636219960789  0.20352783933928112  0.8623693274163186  1.0000
  C   C1863     1.0  0.519740244282323  0.19713441881779498  0.8801924352813899  1.0000
  C   C1864     1.0  0.5404634037633764  0.19936849507246016  0.8784779771245808  1.0000
  H   H1425     1.0  0.5508897793839895  0.1426431693431621  0.5086716386450686  1.0000
  H   H1426     1.0  0.541204053794438  0.10706548321341831  0.9440609907864769  1.0000
  H   H1427     1.0  0.575073828231738  0.0941908535051997  0.9458770464636895  1.0000
  H   H1428     1.0  0.5862544440219054  0.13040001870413676  0.5106714951221397  1.0000
  H   H1429     1.0  0.49641714817550875  0.17107474439502376  0.9783701105784524  1.0000
  H   H1430     1.0  0.47719390571344045  0.18243761215270116  0.5129837095472086  1.0000
  H   H1431     1.0  0.4947948770452328  0.1287670842031429  0.551943546547726  1.0000
  H   H1432     1.0  0.516209608107401  0.11812014044399827  0.5193042545732396  1.0000
  H   H1433     1.0  0.5199733174596723  0.1345900450549434  0.9221268118279351  1.0000
  H   H1434     1.0  0.5321882221597681  0.15916027152527312  0.8945376423140773  1.0000
  H   H1435     1.0  0.5534391776507454  0.1971300411971274  0.9530088295477283  1.0000
  H   H1436     1.0  0.5395531926334456  0.17241564163247697  0.9806995965819898  1.0000
  H   H1437     1.0  0.5867836415260667  0.13971907006706685  0.8583108693244856  1.0000
  H   H1438     1.0  0.5612229356835318  0.16671879337697404  0.8620445781993143  1.0000
  H   H1439     1.0  0.5893221739876754  0.18614395063787045  0.9288757899690249  1.0000
  H   H1440     1.0  0.6139506930645793  0.15999076027146697  0.924566966559055  1.0000
  H   H1441     1.0  0.5284100036506887  0.22242071159681212  0.9242476600663583  1.0000
  H   H1442     1.0  0.5332059720596124  0.25977918279835605  0.932582285222317  1.0000
  H   H1443     1.0  0.5942641530043924  0.2552749348001856  0.9075221682699319  1.0000
  H   H1444     1.0  0.5899883531815668  0.21877757804149525  0.8975075555444437  1.0000
  H   H1445     1.0  0.5647755194766835  0.21132930172320127  0.8565383554417317  1.0000
  H   H1446     1.0  0.542418598160727  0.22429864271760766  0.8256200528932233  1.0000
  H   H1447     1.0  0.49073910468149123  0.20197325745043687  0.8651160889500845  1.0000
  H   H1448     1.0  0.5123222522666624  0.19153083574346907  0.8966584905525004  1.0000
  C   C1865     1.0  0.7036546167191995  0.015137474740202776  0.6428880226644901  1.0000
  C   C1866     1.0  0.692025542134844  0.0007016158977295856  0.6308196886337025  1.0000
  C   C1867     1.0  0.6785359259578119  0.006934198254698621  0.6134875145011522  1.0000
  C   C1868     1.0  0.6740642335149416  0.02730343594013312  0.6098793511336793  1.0000
  C   C1869     1.0  0.6861599488156316  0.04179416964672208  0.6228268665642442  1.0000
  C   C1870     1.0  0.7012393257113677  0.03528829998479682  0.6384202717047459  1.0000
  H   H1449     1.0  0.6935541021847935  0.9847307129761984  0.6361784135625564  1.0000
  H   H1450     1.0  0.669694961066321  0.9950377076363016  0.6045846689275084  1.0000
  H   H1451     1.0  0.6847575351151216  0.0577771261859439  0.6201118542556042  1.0000
  H   H1452     1.0  0.709761907991884  0.04680464679254649  0.6483334683339741  1.0000
  C   C1871     1.0  0.6402120330483551  0.060723420366701114  0.6189766833892386  1.0000
  C   C1872     1.0  0.6443502046078746  0.05456201772151029  0.5953122623733966  1.0000
  C   C1873     1.0  0.6351007157027404  0.0652038018337784  0.5767184647464071  1.0000
  C   C1874     1.0  0.6225479493060256  0.08178646728161036  0.5822265017454256  1.0000
  C   C1875     1.0  0.6199417336143307  0.08861250866845341  0.6055260788085329  1.0000
  C   C1876     1.0  0.6282166027913813  0.07761862512090478  0.6238245179297779  1.0000
  C   C1877     1.0  0.657691691284374  0.03451723623706224  0.5899401120579179  1.0000
  C   C1878     1.0  0.6393639398615423  0.01820661066618643  0.5855890168224942  1.0000
  C   C1879     1.0  0.6310857035569034  0.014362059085193698  0.5628645542945282  1.0000
  C   C1880     1.0  0.615949632062237  0.0001522171471623187  0.5586203178796719  1.0000
  C   C1881     1.0  0.6094377932951301  0.9883288936727931  0.5774252932097858  1.0000
  C   C1882     1.0  0.6153589616927868  0.9934489255061467  0.6008665625290274  1.0000
  C   C1883     1.0  0.6298672313163513  0.008344517213139254  0.604781151275003  1.0000
  C   C1884     1.0  0.6818959028579682  0.05679249751492202  0.5635151412733977  1.0000
  C   C1885     1.0  0.6908279733419119  0.061136520123201345  0.5417429740750709  1.0000
  C   C1886     1.0  0.6919131776059502  0.04594154126891641  0.5236952631202503  1.0000
  C   C1887     1.0  0.6869133688413351  0.02577534546968934  0.5296211199219281  1.0000
  C   C1888     1.0  0.6781016204175092  0.021771668414306167  0.552036798557525  1.0000
  C   C1889     1.0  0.6729268930674907  0.03783277269334491  0.5680710643669206  1.0000
  C   C1890     1.0  0.6936104606054104  0.05335530566351652  0.9961732617877302  1.0000
  C   C1891     1.0  0.6308052576800166  0.07854195356933992  0.9956435032884835  1.0000
  C   C1892     1.0  0.6478503002645893  0.09124770769814035  0.9950847169262641  1.0000
  C   C1893     1.0  0.6671688681940333  0.08347983837117087  0.995191757170975  1.0000
  C   C1894     1.0  0.6706202681017205  0.06251232634020837  0.9945223020811734  1.0000
  C   C1895     1.0  0.6531888004365052  0.049674668015409235  0.9964653546588903  1.0000
  C   C1896     1.0  0.6335860488388543  0.057791849300016844  0.9959972803684599  1.0000
  C   C1897     1.0  0.6976002460120071  0.03524026838344022  0.9769223459127024  1.0000
  C   C1898     1.0  0.7140648418434175  0.02204110636079263  0.978722073416993  1.0000
  C   C1899     1.0  0.7179546441286875  0.007706098069541624  0.9604091203642618  1.0000
  C   C1900     1.0  0.7050976906968689  0.005388203108139617  0.9408896967567391  1.0000
  C   C1901     1.0  0.6884433351049022  0.01822731961809699  0.9396378701660532  1.0000
  C   C1902     1.0  0.68574782238061  0.03367191126519464  0.9563742474110943  1.0000
  C   C1903     1.0  0.7139070868412071  0.07956039588432476  0.9709498631061252  1.0000
  C   C1904     1.0  0.7301862006793455  0.09302126520861934  0.9676733430731123  1.0000
  C   C1905     1.0  0.7449023655993553  0.09611578991750436  0.9851898441355375  1.0000
  C   C1906     1.0  0.7450063565267174  0.08318436094751469  0.5046729829143447  1.0000
  C   C1907     1.0  0.7300083984778645  0.06843077521730992  0.5072201910692041  1.0000
  C   C1908     1.0  0.7131767297487595  0.06783897434347098  0.9914616767790179  1.0000
  H   H1453     1.0  0.6464256261724293  0.05149216190616837  0.6334009913485258  1.0000
  H   H1454     1.0  0.637731484007415  0.06020465926750943  0.5579009711503864  1.0000
  H   H1455     1.0  0.6141277054768942  0.0898541220463559  0.568108256316354  1.0000
  H   H1456     1.0  0.6256620021387789  0.0820691380771298  0.6423468344441977  1.0000
  H   H1457     1.0  0.636300956636387  0.023282374739944257  0.5475269571964709  1.0000
  H   H1458     1.0  0.6106623032453958  0.9981182285195189  0.540584762342471  1.0000
  H   H1459     1.0  0.6087017597821087  0.9852799241352033  0.6153806754393855  1.0000
  H   H1460     1.0  0.6347374321141042  0.011493804105050623  0.6233845643816021  1.0000
  H   H1461     1.0  0.6794547846231069  0.0696351088272123  0.5762502090318331  1.0000
  H   H1462     1.0  0.6949185645401881  0.0768982395123397  0.538416199554287  1.0000
  H   H1463     1.0  0.687925068993735  0.013477150097828879  0.5163381331074738  1.0000
  H   H1464     1.0  0.6724508493037946  0.0063765445002059926  0.555055514882514  1.0000
  H   H1465     1.0  0.6460485798586766  0.10758803461588187  0.9963891565185877  1.0000
  H   H1466     1.0  0.6796631197857332  0.09420715915809257  0.9966104939737525  1.0000
  H   H1467     1.0  0.6547570786916778  0.03342126742350854  0.9982850388189745  1.0000
  H   H1468     1.0  0.6205894771179721  0.04765533203936318  0.9977716084926497  1.0000
  H   H1469     1.0  0.7238827859411943  0.02400467776631698  0.994037899617821  1.0000
  H   H1470     1.0  0.7311496535098155  0.9983169757552011  0.9622759748016763  1.0000
  H   H1471     1.0  0.6774969780401707  0.016843255121760985  0.9252037653030126  1.0000
  H   H1472     1.0  0.6725075904148726  0.04335165937547811  0.953449690216622  1.0000
  H   H1473     1.0  0.7025271789996025  0.07764537610557183  0.9566754114894332  1.0000
  H   H1474     1.0  0.7307765402542076  0.10216054708338226  0.9520236964481015  1.0000
  H   H1475     1.0  0.756467399613025  0.08402708413647973  0.5185103425209437  1.0000
  H   H1476     1.0  0.7309203668692571  0.05841950965952624  0.5222030495393238  1.0000
  C   C1909     1.0  0.7023254587963458  0.007686374730667995  0.8813843919046952  1.0000
  C   C1910     1.0  0.6879305135220612  0.9964968257740888  0.8689840516911607  1.0000
  C   C1911     1.0  0.6718229926496091  0.006270594141948591  0.8582255999770041  1.0000
  C   C1912     1.0  0.6678586529128143  0.026916291807493765  0.8627448753935242  1.0000
  C   C1913     1.0  0.6830662429839645  0.037890158620027564  0.8748077667000043  1.0000
  C   C1914     1.0  0.7000421507400587  0.028704797218779193  0.8834943546945038  1.0000
  H   H1477     1.0  0.6892102375118683  0.9801293123670041  0.8670772839421592  1.0000
  H   H1478     1.0  0.661204237595725  0.9967089153115591  0.8480567767294751  1.0000
  H   H1479     1.0  0.6816458028378091  0.054532147805890434  0.8769902991472438  1.0000
  H   H1480     1.0  0.7112179140771906  0.0380640632954507  0.8933021438963132  1.0000
  C   C1915     1.0  0.6404586238891934  0.0612906053249716  0.8904066145648133  1.0000
  C   C1916     1.0  0.6389874237042412  0.057803200073938896  0.865542435687492  1.0000
  C   C1917     1.0  0.6279139778071781  0.07218700984841676  0.8528391171541828  1.0000
  C   C1918     1.0  0.6194102759153116  0.08923096393244362  0.8637027948716144  1.0000
  C   C1919     1.0  0.6214715693982107  0.09250005983065375  0.8883764783981791  1.0000
  C   C1920     1.0  0.6320808547278794  0.0785326169248814  0.9017020817439597  1.0000
  C   C1921     1.0  0.6488400293233777  0.03832982628567948  0.8514040521784834  1.0000
  C   C1922     1.0  0.6289110443824589  0.024113473648275582  0.8492596188013952  1.0000
  C   C1923     1.0  0.6156571094190709  0.025330214765351782  0.8299433902346794  1.0000
  C   C1924     1.0  0.5978188612577473  0.013426153713247997  0.8288784305118784  1.0000
  C   C1925     1.0  0.5938200329734112  0.9996258661842455  0.8472766529120911  1.0000
  C   C1926     1.0  0.6067313956624718  0.9982832810233889  0.8665892529959353  1.0000
  C   C1927     1.0  0.6239602320954432  0.010622970814202236  0.8677013829960665  1.0000
  C   C1928     1.0  0.6692359961142558  0.06394115677483879  0.8246240343449818  1.0000
  C   C1929     1.0  0.676997179567599  0.07115710096648589  0.8034899358596176  1.0000
  C   C1930     1.0  0.6771717742291433  0.05836958659532435  0.7827078002127942  1.0000
  C   C1931     1.0  0.6684719548812454  0.03894033091058677  0.7839741407349664  1.0000
  C   C1932     1.0  0.6595874802616681  0.03269770018263287  0.8052878491224724  1.0000
  C   C1933     1.0  0.6589438847344382  0.0451795275696736  0.82585771852131  1.0000
  C   C1934     1.0  0.6853763076704443  0.06729727348628023  0.7569727854463  1.0000
  C   C1935     1.0  0.6279994380144731  0.0996519696639198  0.7453072130142551  1.0000
  C   C1936     1.0  0.6447104045407479  0.11002701699148434  0.7544110765389831  1.0000
  C   C1937     1.0  0.6624907434413588  0.09998976395337428  0.7574608163925239  1.0000
  C   C1938     1.0  0.6649189559411035  0.0794951063015142  0.7505957267995444  1.0000
  C   C1939     1.0  0.6479268388962447  0.06913970490286923  0.741836569147614  1.0000
  C   C1940     1.0  0.6294472689798454  0.07885752809236322  0.7397665196693927  1.0000
  C   C1941     1.0  0.6925730569922747  0.050678960455959765  0.737779925297217  1.0000
  C   C1942     1.0  0.7054227286388123  0.0346323757169077  0.7434585009911985  1.0000
  C   C1943     1.0  0.7106468261999813  0.019808747089926977  0.7269688605814231  1.0000
  C   C1944     1.0  0.7020380631728752  0.020401480253091957  0.7040568054889976  1.0000
  C   C1945     1.0  0.6902257842067842  0.03647535557732905  0.6972552143462702  1.0000
  C   C1946     1.0  0.6862529854337103  0.05223128531501539  0.7137013129615871  1.0000
  C   C1947     1.0  0.7108498021704184  0.0953115886214822  0.7444164204692886  1.0000
  C   C1948     1.0  0.7282286726882673  0.1065265352537881  0.7472684080063298  1.0000
  C   C1949     1.0  0.7418428122372271  0.10227279308581319  0.7656194601292122  1.0000
  C   C1950     1.0  0.7381471620623017  0.08528987312014724  0.7795673482874644  1.0000
  C   C1951     1.0  0.720465695436038  0.07401246838758518  0.7773684876673029  1.0000
  C   C1952     1.0  0.706031015959822  0.07953433321713278  0.7601985067191112  1.0000
  H   H1481     1.0  0.6485347311912063  0.04971628895069827  0.9005645523637278  1.0000
  H   H1482     1.0  0.6259707510543359  0.07066565305962194  0.8334720898272653  1.0000
  H   H1483     1.0  0.6099805865384309  0.09892279291259912  0.8529878849519165  1.0000
  H   H1484     1.0  0.6333334621342598  0.08067480624501217  0.9210999511752855  1.0000
  H   H1485     1.0  0.6177744155983143  0.03622002058583334  0.8149196569050114  1.0000
  H   H1486     1.0  0.5875848150081123  0.014565629944257133  0.8139036817009765  1.0000
  H   H1487     1.0  0.6038907997254828  0.9881051133661624  0.8815349739438647  1.0000
  H   H1488     1.0  0.633032775755737  0.01007729789995946  0.8839188871904755  1.0000
  H   H1489     1.0  0.669927861208026  0.07369352619531576  0.8404387769406483  1.0000
  H   H1490     1.0  0.6831638339473165  0.08671212571092457  0.8036985736247318  1.0000
  H   H1491     1.0  0.6684549082317478  0.02897500209823584  0.7683517077314921  1.0000
  H   H1492     1.0  0.6522715318760841  0.017813381224269127  0.8060153599382189  1.0000
  H   H1493     1.0  0.6431841684084296  0.12550427761635316  0.75983384419052  1.0000
  H   H1494     1.0  0.6756183850046261  0.10798587515573245  0.7655196768502446  1.0000
  H   H1495     1.0  0.6491727496053491  0.05290113461152526  0.7375259314962083  1.0000
  H   H1496     1.0  0.6163514308182484  0.07051217456315849  0.7330102845625598  1.0000
  H   H1497     1.0  0.7120214553942186  0.03403327682698766  0.7611237698513573  1.0000
  H   H1498     1.0  0.7210807275113719  0.007573974659285838  0.7319725384612955  1.0000
  H   H1499     1.0  0.6818658518276651  0.036211780411183316  0.6802971367977771  1.0000
  H   H1500     1.0  0.6770161955453374  0.06454464967506535  0.7070376041679789  1.0000
  H   H1501     1.0  0.699998770002288  0.09938860970782616  0.730472160793908  1.0000
  H   H1502     1.0  0.7309082371459464  0.11943676603753803  0.735105733420882  1.0000
  H   H1503     1.0  0.7486791269068818  0.08049478423448315  0.7932957132319877  1.0000
  H   H1504     1.0  0.7172745313214939  0.06124722566542551  0.7883210632150875  1.0000
  C   C1953     1.0  0.09418909259643456  0.08040647097217793  0.589381144271555  1.0000
  C   C1954     1.0  0.11417961464508143  0.07789122620789597  0.5831829698303671  1.0000
  C   C1955     1.0  0.1250993393145497  0.06149403368500168  0.5916522117008604  1.0000
  C   C1956     1.0  0.1163187874588237  0.046413395515561666  0.6052724478558112  1.0000
  C   C1957     1.0  0.0966847416061478  0.050264466410987405  0.61321610398236  1.0000
  C   C1958     1.0  0.08530218062471659  0.06638367252974102  0.6044375339470668  1.0000
  H   H1505     1.0  0.12102477264191472  0.08814078417044828  0.570516480398204  1.0000
  H   H1506     1.0  0.14095647318121474  0.06001530372650474  0.586066888016678  1.0000
  H   H1507     1.0  0.08967539565964404  0.039373915350456215  0.625339228104508  1.0000
  H   H1508     1.0  0.06959820049487385  0.06777484549661363  0.6100576910668162  1.0000
  C   C1959     1.0  0.11777710146789029  0.9916398776479741  0.6333545467677699  1.0000
  C   C1960     1.0  0.11379586277891576  0.006762082106350587  0.6164790172046046  1.0000
  C   C1961     1.0  0.09723605318075228  0.0036472513590800637  0.6011448671652754  1.0000
  C   C1962     1.0  0.08569565472557601  0.9859930404007347  0.6016991179239053  1.0000
  C   C1963     1.0  0.09110992402595304  0.9709668720408388  0.6171882041818498  1.0000
  C   C1964     1.0  0.1063323560389022  0.9736542374012095  0.6337398916487289  1.0000
  C   C1965     1.0  0.1286834953774424  0.025952593678821835  0.6123657690214115  1.0000
  C   C1966     1.0  0.14030652288722795  0.03413754874227507  0.6359920909671022  1.0000
  C   C1967     1.0  0.15981402422761315  0.04180648484749186  0.635149738668471  1.0000
  C   C1968     1.0  0.16801908248564734  0.053351101863337684  0.6538454966641513  1.0000
  C   C1969     1.0  0.15645278776705726  0.05761445501299815  0.6740508849585412  1.0000
  C   C1970     1.0  0.1371083219484426  0.04922477391160345  0.6760423777825935  1.0000
  C   C1971     1.0  0.12922283315834382  0.037318980999280986  0.657567594393791  1.0000
  C   C1972     1.0  0.1381527448249875  0.017802702388447868  0.5673036402395869  1.0000
  C   C1973     1.0  0.14687015927182728  0.005744505615774621  0.5498562617758648  1.0000
  C   C1974     1.0  0.16100643615236057  0.9906690391256171  0.5555185092969243  1.0000
  C   C1975     1.0  0.16576836883843274  0.9884321063462334  0.5799567042851251  1.0000
  C   C1976     1.0  0.15723274248122773  0.0011156980507864894  0.5974289378565174  1.0000
  C   C1977     1.0  0.14273867208338975  0.015791024825808762  0.5916685398737824  1.0000
  C   C1978     1.0  0.1721535767856099  0.9775317204743341  0.5343169210301493  1.0000
  C   C1979     1.0  0.12423682786765837  0.9315106941780656  0.5192162638636045  1.0000
  C   C1980     1.0  0.12316629407814274  0.9510981143302122  0.509522450272176  1.0000
  C   C1981     1.0  0.1383868499393522  0.96544929949665  0.5139008267354082  1.0000
  C   C1982     1.0  0.15457548708368052  0.961050657148373  0.5286934982758154  1.0000
  C   C1983     1.0  0.1544192734999689  0.9421266119723144  0.5399378038464729  1.0000
  C   C1984     1.0  0.1392730690682236  0.9278960318416597  0.535484203969928  1.0000
  C   C1985     1.0  0.19435918250936404  0.9678185437796606  0.5398880936311327  1.0000
  C   C1986     1.0  0.20864483578852822  0.9787634595551096  0.5534043737518135  1.0000
  C   C1987     1.0  0.22838632269759945  0.9717896117811383  0.5561821588141315  1.0000
  C   C1988     1.0  0.2350316935549454  0.9542677495791517  0.5440964080655606  1.0000
  C   C1989     1.0  0.22109692342192133  0.9432775566857396  0.5304193861536699  1.0000
  C   C1990     1.0  0.2012348332437253  0.9502567615376224  0.5280483540212532  1.0000
  C   C1991     1.0  0.17910324496399557  0.9830237723506258  0.988185156746005  1.0000
  C   C1992     1.0  0.18727052467973812  0.9941906933777976  0.9697306928612832  1.0000
  C   C1993     1.0  0.19417019928460766  0.013909117178820379  0.9741719558960648  1.0000
  C   C1994     1.0  0.19437149793096983  0.02204825627803743  0.9969025868449125  1.0000
  C   C1995     1.0  0.1869105155855822  0.010600148182135451  0.5158363139263379  1.0000
  C   C1996     1.0  0.17854265870144717  0.9911311161747852  0.5118014409731703  1.0000
  H   H1509     1.0  0.13060450822174782  0.9922458969085187  0.6453209204298667  1.0000
  H   H1510     1.0  0.0934364311595643  0.014249236920855972  0.587228002535575  1.0000
  H   H1511     1.0  0.07305515337139129  0.9844532800840134  0.5899502718099582  1.0000
  H   H1512     1.0  0.109975524040389  0.9618846315740115  0.6464383117301616  1.0000
  H   H1513     1.0  0.16812823151046757  0.04070786071844319  0.6183513143663264  1.0000
  H   H1514     1.0  0.18287877324591253  0.060147387042162645  0.6517941338727183  1.0000
  H   H1515     1.0  0.12730871183365478  0.052843764660118274  0.6911883909850326  1.0000
  H   H1516     1.0  0.1139283004703131  0.031202794935949005  0.6595033900057649  1.0000
  H   H1517     1.0  0.12628279768502837  0.028228032546188782  0.5622834527626489  1.0000
  H   H1518     1.0  0.1424589441603527  0.007685035161483964  0.5315168207981713  1.0000
  H   H1519     1.0  0.17666118518169496  0.9764521699257356  0.5860061109285795  1.0000
  H   H1520     1.0  0.16039994406262237  0.9977455010522152  0.6166564500170236  1.0000
  H   H1521     1.0  0.11108322608441555  0.9548050335195715  0.9974504877585172  1.0000
  H   H1522     1.0  0.1372511476359484  0.9801792541927365  0.5058141407774482  1.0000
  H   H1523     1.0  0.16594767452249878  0.9388548749346971  0.5525157582965701  1.0000
  H   H1524     1.0  0.14012329092506984  0.9132437928507164  0.545010785749192  1.0000
  H   H1525     1.0  0.203908671037203  0.9930809352558398  0.5611388478408172  1.0000
  H   H1526     1.0  0.23944063952239703  0.9816550530961428  0.5648640297808978  1.0000
  H   H1527     1.0  0.22572788859584614  0.9297394265532605  0.5202572755994532  1.0000
  H   H1528     1.0  0.19088675381539777  0.9421534390592261  0.5156411741175058  1.0000
  H   H1529     1.0  0.1744436934217801  0.9675287349060673  0.9839289463376726  1.0000
  H   H1530     1.0  0.18893551208595807  0.986413821610815  0.9526096964318573  1.0000
  H   H1531     1.0  0.20021883573847296  0.037103118945602157  0.5007886920003465  1.0000
  H   H1532     1.0  0.18753740172945635  0.016657499885499756  0.5339890876027044  1.0000
  C   C1997     1.0  0.11191863635413044  0.05497307174087745  0.8304967338725913  1.0000
  C   C1998     1.0  0.13211812146007934  0.05796994595559971  0.8361045541505774  1.0000
  C   C1999     1.0  0.14326317548937875  0.04182271826468939  0.8447802566964622  1.0000
  C   C2000     1.0  0.13501164725254705  0.022469048117309938  0.8480404485565533  1.0000
  C   C2001     1.0  0.11435308022661363  0.020160054443920727  0.8427791483928003  1.0000
  C   C2002     1.0  0.10270568965935577  0.036053472346816495  0.8348690557328134  1.0000
  H   H1533     1.0  0.13972244741705467  0.07222025810310508  0.8321549505448913  1.0000
  H   H1534     1.0  0.159395675688583  0.044636834827486455  0.848203730285773  1.0000
  H   H1535     1.0  0.10691500519416763  0.004992681967709855  0.8445589192412974  1.0000
  H   H1536     1.0  0.08658589831039182  0.0342834679599174  0.8309031239542053  1.0000
  C   C2003     1.0  0.12234877293752029  0.9870511145299229  0.8842527076146584  1.0000
  C   C2004     1.0  0.13766084688806374  0.9851496126217961  0.8670663984935446  1.0000
  C   C2005     1.0  0.14411077604534445  0.9653901047786198  0.8616908011193379  1.0000
  C   C2006     1.0  0.13371474363156363  0.9484236768156334  0.8702431352475899  1.0000
  C   C2007     1.0  0.11687356340480871  0.9506686871630489  0.884573828348791  1.0000
  C   C2008     1.0  0.11169749573381405  0.9702443171844941  0.8923732522811955  1.0000
  C   C2009     1.0  0.1494670561386601  0.0038114506311879718  0.8546098167955011  1.0000
  C   C2010     1.0  0.16549318418985792  0.008034349353519613  0.8752957976462282  1.0000
  C   C2011     1.0  0.18296403114704443  0.9965794658864041  0.8760686644978692  1.0000
  C   C2012     1.0  0.1972617635902199  0.9998266277759658  0.8935597661801934  1.0000
  C   C2013     1.0  0.19352848337282152  0.013778708844381492  0.911789264126879  1.0000
  C   C2014     1.0  0.1751241818183903  0.02402310943633631  0.9121648121040847  1.0000
  C   C2015     1.0  0.16170045370515462  0.0216103423670767  0.8939915556419084  1.0000
  C   C2016     1.0  0.1451630660415293  0.9901067521858951  0.8109736817821969  1.0000
  C   C2017     1.0  0.15081871364574603  0.9870572428972505  0.7873540725298186  1.0000
  C   C2018     1.0  0.17064996544305552  0.9910484045821228  0.7796127043233588  1.0000
  C   C2019     1.0  0.18383983398130596  0.0007171884201986945  0.7962202704264599  1.0000
  C   C2020     1.0  0.17742050328905676  0.00472463530564881  0.8199432914406776  1.0000
  C   C2021     1.0  0.15806864480972907  0.999157143910998  0.8278515698592287  1.0000
  C   C2022     1.0  0.17742684577753123  0.9885722463744111  0.751867510046024  1.0000
  C   C2023     1.0  0.1326361383228669  0.9468528584889696  0.7192565202379357  1.0000
  C   C2024     1.0  0.141727904172611  0.96224833920032  0.7057712636458067  1.0000
  C   C2025     1.0  0.15827600378997914  0.9732582663331274  0.7143925389486181  1.0000
  C   C2026     1.0  0.16466025149167393  0.9708217125077204  0.7380683896855056  1.0000
  C   C2027     1.0  0.15802877990110648  0.9529985534038002  0.7492187175497899  1.0000
  C   C2028     1.0  0.14171980723275948  0.9416031605216688  0.740706296733125  1.0000
  C   C2029     1.0  0.200107606133501  0.9808893723135121  0.7459530829653916  1.0000
  C   C2030     1.0  0.21119607129384801  0.9690661721246572  0.7620726181222687  1.0000
  C   C2031     1.0  0.23202978812171887  0.9657260159016992  0.7588051692964346  1.0000
  C   C2032     1.0  0.24196940662204522  0.9743568116152256  0.7388158571570456  1.0000
  C   C2033     1.0  0.2303278763603448  0.9840382232343277  0.7221720062252291  1.0000
  C   C2034     1.0  0.21027374945609045  0.9871254056796621  0.7253088296676872  1.0000
  C   C2035     1.0  0.1871464142565345  0.027583638936216875  0.7448336959995173  1.0000
  C   C2036     1.0  0.18190334292017496  0.047251727193883694  0.7380012627523818  1.0000
  C   C2037     1.0  0.16217065112975715  0.051806682501933196  0.7319054115281717  1.0000
  C   C2038     1.0  0.14706437143393838  0.03690152874683798  0.7340026746279297  1.0000
  C   C2039     1.0  0.15209922331722858  0.017575593308423964  0.740512172899497  1.0000
  C   C2040     1.0  0.17233414654326168  0.012221656072172528  0.7452237579082093  1.0000
  H   H1537     1.0  0.11810187226248647  0.002430971135176102  0.8909218591325739  1.0000
  H   H1538     1.0  0.15639396370141367  0.9624664068255115  0.8489638974473636  1.0000
  H   H1539     1.0  0.13857985091530467  0.9331591414302685  0.8640602004344624  1.0000
  H   H1540     1.0  0.09843804850031126  0.9730735363682479  0.9038954996398141  1.0000
  H   H1541     1.0  0.18631477089294468  0.9848895780417136  0.8628591726039782  1.0000
  H   H1542     1.0  0.2107884160148865  0.9909997460092855  0.893498081971377  1.0000
  H   H1543     1.0  0.17138047094293068  0.035048146770991634  0.9259711894303462  1.0000
  H   H1544     1.0  0.14773720203810647  0.030783409335990084  0.8951272707807046  1.0000
  H   H1545     1.0  0.1294418127535061  0.9865781704103865  0.8152679912606807  1.0000
  H   H1546     1.0  0.1394547002467169  0.9813120550398752  0.7751206425283754  1.0000
  H   H1547     1.0  0.19889779141839226  0.0056369053562646595  0.7903711560375154  1.0000
  H   H1548     1.0  0.18765458093158593  0.013518329940251168  0.8318066161892221  1.0000
  H   H1549     1.0  0.13555442178620045  0.967135851435694  0.688421672795473  1.0000
  H   H1550     1.0  0.16492312546541193  0.9853518111181848  0.7033565082947877  1.0000
  H   H1551     1.0  0.16424097873206828  0.9498870569068731  0.7668241164425681  1.0000
  H   H1552     1.0  0.13503158619921807  0.9298165125059483  0.7514085069627725  1.0000
  H   H1553     1.0  0.20457573946678187  0.9637163152385391  0.7788434659545895  1.0000
  H   H1554     1.0  0.24112988157826445  0.9584325385333882  0.7730106797385671  1.0000
  H   H1555     1.0  0.23833027274670876  0.9922849451638044  0.7083075731730226  1.0000
  H   H1556     1.0  0.20233864059005952  0.9967522226133578  0.7123061612974747  1.0000
  H   H1557     1.0  0.2027657163537702  0.024541874793643163  0.7494055844176749  1.0000
  H   H1558     1.0  0.19409003851713535  0.05838671017610741  0.7377545259171162  1.0000
  H   H1559     1.0  0.13185146843490234  0.04054667844350093  0.7306064146601555  1.0000
  H   H1560     1.0  0.13986590032729895  0.0065434886669751575  0.7415444762764539  1.0000
  C   C2041     1.0  0.9854515909640972  0.872547479185599  0.7403906187232998  1.0000
  C   C2042     1.0  0.973132950656784  0.8857763980721114  0.727660086568454  1.0000
  C   C2043     1.0  0.9823674055968239  0.8997139511685057  0.7123224894703967  1.0000
  C   C2044     1.0  0.0032501890936436073  0.9016019353063146  0.7100782728143408  1.0000
  C   C2045     1.0  0.014995076670183181  0.8868532759610854  0.7210616904665336  1.0000
  C   C2046     1.0  0.0060154756429233736  0.8724301489554694  0.7359293990327247  1.0000
  H   H1561     1.0  0.9569580801447042  0.885614520753267  0.7290624951983093  1.0000
  H   H1562     1.0  0.9730096583593475  0.9096992621631098  0.7018996724218589  1.0000
  H   H1563     1.0  0.03104707302882297  0.8856947948960628  0.7180700063389377  1.0000
  H   H1564     1.0  0.015489462647358508  0.8611201537023011  0.7449026371740768  1.0000
  C   C2047     1.0  0.040444852866180006  0.9294813467260381  0.7213955108907166  1.0000
  C   C2048     1.0  0.03368592707700724  0.9287854003550293  0.6976960750151641  1.0000
  C   C2049     1.0  0.04614966210297657  0.9371130502658701  0.6798526476460119  1.0000
  C   C2050     1.0  0.06552431667778374  0.9435422600247314  0.6852286078685057  1.0000
  C   C2051     1.0  0.07254863736284928  0.9432416061330434  0.7083964710033757  1.0000
  C   C2052     1.0  0.05994678897515705  0.9366037547770973  0.7263864890805387  1.0000
  C   C2053     1.0  0.011527838144275824  0.9188716412042848  0.6914314993374266  1.0000
  C   C2054     1.0  0.9982849403584808  0.9391783498835111  0.6893160938233109  1.0000
  C   C2055     1.0  0.9964016980069719  0.9498941781976896  0.6677654455042924  1.0000
  C   C2056     1.0  0.9837679197991107  0.9664932040571081  0.6663113309935172  1.0000
  C   C2057     1.0  0.9739784145125768  0.9741321036867233  0.6867598276403014  1.0000
  C   C2058     1.0  0.9779992542500588  0.965567704911253  0.708630508148591  1.0000
  C   C2059     1.0  0.9909537281301123  0.9490092344209283  0.710003888915474  1.0000
  C   C2060     1.0  0.02972081628428116  0.8925659298192461  0.6633700827778358  1.0000
  C   C2061     1.0  0.03153149485337843  0.8805896697620272  0.6431730399940505  1.0000
  C   C2062     1.0  0.01625859391075414  0.8795821199630118  0.6260099531633146  1.0000
  C   C2063     1.0  0.9982857241594423  0.8901905632870811  0.631066062620681  1.0000
  C   C2064     1.0  0.9962798187067924  0.9021877049107286  0.6515611852723646  1.0000
  C   C2065     1.0  0.012315913982559712  0.9041389502341909  0.6676966857538764  1.0000
  C   C2066     1.0  0.021750439431856443  0.871564258609196  0.5996100189106083  1.0000
  C   C2067     1.0  0.0642013159396993  0.9222569397899127  0.5895152167136589  1.0000
  C   C2068     1.0  0.07168626291554622  0.9028429144792343  0.5912942618655815  1.0000
  C   C2069     1.0  0.05815715433813551  0.8864695408332419  0.5923260209701079  1.0000
  C   C2070     1.0  0.037282498197400156  0.888980084067177  0.5912385646535033  1.0000
  C   C2071     1.0  0.030094031761157262  0.9087943205838673  0.5881294991050126  1.0000
  C   C2072     1.0  0.043497597242044266  0.9252270229282024  0.5875061257476797  1.0000
  C   C2073     1.0  0.002278458192119802  0.8677807371197069  0.5829262546672047  1.0000
  C   C2074     1.0  0.9870773435587943  0.8545450635333374  0.5906964693124931  1.0000
  C   C2075     1.0  0.9714717959567628  0.8487009214641922  0.5755549917136434  1.0000
  C   C2076     1.0  0.9697421135078723  0.856947337601242  0.5529480920307157  1.0000
  C   C2077     1.0  0.9839994609246481  0.8713661602921126  0.545829190060871  1.0000
  C   C2078     1.0  0.00019862186804675417  0.8760977437197119  0.5602954069973246  1.0000
  C   C2079     1.0  0.04246345299027627  0.8416575379740477  0.5812457228252446  1.0000
  C   C2080     1.0  0.05273433498457378  0.8232827871159086  0.5828172187569145  1.0000
  C   C2081     1.0  0.0513411943207949  0.811346170958434  0.6033165141639003  1.0000
  C   C2082     1.0  0.038535745526926284  0.817496692633232  0.6215902796016187  1.0000
  C   C2083     1.0  0.027750743074620686  0.835418387026117  0.6199111991528072  1.0000
  C   C2084     1.0  0.030879102706540394  0.8489239892479774  0.6006847755371624  1.0000
  H   H1565     1.0  0.030958533702752377  0.9238852832481778  0.7362087922138343  1.0000
  H   H1566     1.0  0.041079917542959477  0.9382572548042567  0.6609275695328496  1.0000
  H   H1567     1.0  0.0747998871583027  0.9500263454518574  0.6706613376840793  1.0000
  H   H1568     1.0  0.06489974930116472  0.936558175920258  0.7450459622475032  1.0000
  H   H1569     1.0  0.004352007993952966  0.9452312125174942  0.6516040013702489  1.0000
  H   H1570     1.0  0.9799668145684917  0.9730162190353502  0.6487309686325528  1.0000
  H   H1571     1.0  0.9709213700721655  0.9709750109999249  0.7254811826040859  1.0000
  H   H1572     1.0  0.9938732801322304  0.942605765109218  0.7276492011198392  1.0000
  H   H1573     1.0  0.042448268509712186  0.8931498488767957  0.6761056948087021  1.0000
  H   H1574     1.0  0.045965255714774  0.8725141153452116  0.6398965199610375  1.0000
  H   H1575     1.0  0.9863770086578668  0.8909755118591498  0.617399926157405  1.0000
  H   H1576     1.0  0.9822205940365537  0.9106668792089035  0.6542346514521252  1.0000
  H   H1577     1.0  0.08766250804642862  0.900375884540086  0.5936959546782631  1.0000
  H   H1578     1.0  0.0651177081483609  0.8717403396748216  0.5955408567943045  1.0000
  H   H1579     1.0  0.01426188708115439  0.9119728094322302  0.5886019275748888  1.0000
  H   H1580     1.0  0.03765266316830078  0.9408180715552423  0.586178101016691  1.0000
  H   H1581     1.0  0.9885091432072484  0.8470075431729099  0.6080242892655976  1.0000
  H   H1582     1.0  0.959623649607594  0.838510878498075  0.5821366967943545  1.0000
  H   H1583     1.0  0.9828683972271823  0.8794624693764498  0.5287954586445061  1.0000
  H   H1584     1.0  0.011937066678819217  0.8862728854980968  0.5529333966750859  1.0000
  H   H1585     1.0  0.04438160526530041  0.8513249273610688  0.5662290650371763  1.0000
  H   H1586     1.0  0.06256997548371064  0.8181026653583443  0.5687035089314323  1.0000
  H   H1587     1.0  0.03775695658243885  0.8089106882291368  0.6387774958434503  1.0000
  H   H1588     1.0  0.017525370495363186  0.8389258789753674  0.6348307950240616  1.0000
  C   C2085     1.0  0.9699610347172822  0.8511993321161827  0.9951173732721081  1.0000
  C   C2086     1.0  0.9620828804568873  0.8677935404324615  0.9837003519167646  1.0000
  C   C2087     1.0  0.9748197534111165  0.8822986855354829  0.9744749342158395  1.0000
  C   C2088     1.0  0.9960243647707312  0.8801646711911693  0.9760623954721444  1.0000
  C   C2089     1.0  0.0034849583905112174  0.8617294731851939  0.9848650949185334  1.0000
  C   C2090     1.0  0.9906598721660005  0.8477946202396711  0.994906921265558  1.0000
  H   H1589     1.0  0.9452837243929063  0.8704600386278737  0.9835697265333887  1.0000
  H   H1590     1.0  0.9678660787343035  0.8960795096349096  0.9667825505281458  1.0000
  H   H1591     1.0  0.019591767569014193  0.8599930532010509  0.9862112620638798  1.0000
  H   H1592     1.0  0.9964489761010995  0.8357123089175605  0.5056447400912042  1.0000
  C   C2091     1.0  0.0337858588152916  0.897847854587633  0.5049614473026331  1.0000
  C   C2092     1.0  0.032808043981677214  0.8997802549739996  0.9802242653258163  1.0000
  C   C2093     1.0  0.049903445972125184  0.9084062045687229  0.9687618879345784  1.0000
  C   C2094     1.0  0.06726310110632067  0.9134331807277165  0.9813128101872823  1.0000
  C   C2095     1.0  0.06826028193633926  0.9101988682739319  0.5058613110547785  1.0000
  C   C2096     1.0  0.051095653177303274  0.9031548524533054  0.5176034757968563  1.0000
  C   C2097     1.0  0.01186970509684415  0.8969302504076844  0.9659534421919957  1.0000
  C   C2098     1.0  0.003680381676001154  0.92011828054066  0.9679636217028366  1.0000
  C   C2099     1.0  0.007986414584364445  0.9340320365603716  0.9501169286990999  1.0000
  C   C2100     1.0  0.9984129504089716  0.9525169364309553  0.949652482891541  1.0000
  C   C2101     1.0  0.9844097402708162  0.9578641724130643  0.9674429344107686  1.0000
  C   C2102     1.0  0.9818349956819208  0.9453333761293261  0.9868335468763513  1.0000
  C   C2103     1.0  0.9914077633706213  0.9267062466342637  0.9871492248861763  1.0000
  C   C2104     1.0  0.029116085247665437  0.8727744441248771  0.9348192449126298  1.0000
  C   C2105     1.0  0.031620237155923464  0.8654030687419283  0.9117439080909845  1.0000
  C   C2106     1.0  0.02043467062795434  0.8721533048502891  0.8921047445487005  1.0000
  C   C2107     1.0  0.005193180816741361  0.8860533883469226  0.8973297598837376  1.0000
  C   C2108     1.0  0.0019048187261749838  0.8932202067670781  0.920673604437878  1.0000
  C   C2109     1.0  0.014610367531109536  0.8875486155848857  0.939817480068195  1.0000
  C   C2110     1.0  0.02619348888662768  0.8649801611374787  0.8652376431262815  1.0000
  C   C2111     1.0  0.07791237509252266  0.907990857320551  0.8638424914621692  1.0000
  C   C2112     1.0  0.08090051123975135  0.8880696153093987  0.8708817482329833  1.0000
  C   C2113     1.0  0.06510896820628546  0.8738743810879809  0.8694630114302057  1.0000
  C   C2114     1.0  0.04580790494559045  0.879578029961944  0.8619992221634198  1.0000
  C   C2115     1.0  0.04312378820256292  0.8997433810053796  0.8544175072033087  1.0000
  C   C2116     1.0  0.05898945794224746  0.9134435049701201  0.8558126588674211  1.0000
  C   C2117     1.0  0.010024116034593968  0.8664904653576501  0.8435629006930558  1.0000
  C   C2118     1.0  0.9894209169337859  0.8620371308381644  0.8464783866803494  1.0000
  C   C2119     1.0  0.9764421859455228  0.8632093184722412  0.8272202138395783  1.0000
  C   C2120     1.0  0.9834101842017973  0.867729360469907  0.8044405983719647  1.0000
  C   C2121     1.0  0.003991028277062547  0.8717864758276448  0.8012856325151488  1.0000
  C   C2122     1.0  0.01722325812745666  0.8701245795631871  0.8202281273460946  1.0000
  C   C2123     1.0  0.043421733453045896  0.8314188875391261  0.8488768138584463  1.0000
  C   C2124     1.0  0.04607634803924653  0.8106527778113245  0.8485302937442128  1.0000
  C   C2125     1.0  0.034272966393819965  0.7983691465588941  0.8632800766170784  1.0000
  C   C2126     1.0  0.019706031901747405  0.8067903149944353  0.8780516303871733  1.0000
  C   C2127     1.0  0.016364132537592047  0.8277340376490707  0.8776053269939722  1.0000
  C   C2128     1.0  0.029008748976472876  0.8405277613296913  0.8637826214947887  1.0000
  H   H1593     1.0  0.0205368480395117  0.8932017978437047  0.5149093998343852  1.0000
  H   H1594     1.0  0.048917646536305585  0.9112542148693108  0.949759523136252  1.0000
  H   H1595     1.0  0.0796930113820603  0.920984913921844  0.9724375410834621  1.0000
  H   H1596     1.0  0.051300737691405876  0.901725158464613  0.5369720633714087  1.0000
  H   H1597     1.0  0.018949590271856782  0.9305290017285636  0.9362379817154074  1.0000
  H   H1598     1.0  0.0009364467146995014  0.9633079588235421  0.9353326752389547  1.0000
  H   H1599     1.0  0.9705317206622458  0.9485141805294314  0.5004730139905214  1.0000
  H   H1600     1.0  0.9881304119827622  0.9167612415514305  0.5022709272533762  1.0000
  H   H1601     1.0  0.03943469254407717  0.8674489222983843  0.9485222104770522  1.0000
  H   H1602     1.0  0.04285595665216692  0.8541576953967661  0.9092384406681767  1.0000
  H   H1603     1.0  0.9956012420236297  0.8918951719197339  0.8829156116764908  1.0000
  H   H1604     1.0  0.9903086959558944  0.9049167753010757  0.9241986755475924  1.0000
  H   H1605     1.0  0.09571272116999097  0.8829741431984272  0.8764206273364099  1.0000
  H   H1606     1.0  0.06808212946612002  0.8584047369073294  0.8754445654439619  1.0000
  H   H1607     1.0  0.02782455970442878  0.9042692986011361  0.8495226838095828  1.0000
  H   H1608     1.0  0.05586730628102541  0.9295266705186415  0.8518231419501477  1.0000
  H   H1609     1.0  0.9837340956036158  0.8577393896564689  0.8637826214947887  1.0000
  H   H1610     1.0  0.9602581952968636  0.861474506986034  0.830678158016169  1.0000
  H   H1611     1.0  0.010223530229215513  0.8759362395492496  0.7839813977007095  1.0000
  H   H1612     1.0  0.033449940844084806  0.8721576886263126  0.8164799045397795  1.0000
  H   H1613     1.0  0.05268669310826103  0.8414018218310166  0.8379224240692258  1.0000
  H   H1614     1.0  0.056874309171123044  0.8034376486035527  0.8363821330902513  1.0000
  H   H1615     1.0  0.010703504464149916  0.7966807077360866  0.8893362121177051  1.0000
  H   H1616     1.0  0.004121917605455882  0.833884386717559  0.8884925898500688  1.0000
  C   C2129     1.0  0.0559003758925624  0.12420281614951943  0.5813133940307991  1.0000
  C   C2130     1.0  0.06178227727788962  0.14198618332943724  0.5702900630670191  1.0000
  C   C2131     1.0  0.04849889935506126  0.15155039068624507  0.554952828817249  1.0000
  C   C2132     1.0  0.029323907930564358  0.14327727476971028  0.5495500178215057  1.0000
  C   C2133     1.0  0.0232343021892863  0.12594208589531103  0.5620192992095998  1.0000
  C   C2134     1.0  0.03661025802018799  0.11624335423751168  0.5775002213810834  1.0000
  H   H1617     1.0  0.07740452645367082  0.14799724555101723  0.5718889540443692  1.0000
  H   H1618     1.0  0.054021407612871844  0.16507652257539926  0.5461098532109857  1.0000
  H   H1619     1.0  0.008488046650787506  0.11989898751820696  0.5601765741832813  1.0000
  H   H1620     1.0  0.03125404273933798  0.10239529384477224  0.5862787914163766  1.0000
  C   C2135     1.0  0.9969297955786234  0.12197981151439408  0.5133179653893362  1.0000
  C   C2136     1.0  0.9969689897720528  0.14324900875384466  0.5186826954573425  1.0000
  C   C2137     1.0  0.9798574814860852  0.1541216299023826  0.5117172057433071  1.0000
  C   C2138     1.0  0.9631487045788201  0.14448211920926748  0.5024450944312108  1.0000
  C   C2139     1.0  0.9624203644000996  0.12358013707793987  0.5001736641536181  1.0000
  C   C2140     1.0  0.9795284564097752  0.11231386761782496  0.5056436020824853  1.0000
  C   C2141     1.0  0.014409247660837251  0.15541990455070814  0.5325678108619168  1.0000
  C   C2142     1.0  0.026497868209582092  0.16499321183794888  0.5098224845574393  1.0000
  C   C2143     1.0  0.022577149941880287  0.18476351716396283  0.5013746919841024  1.0000
  C   C2144     1.0  0.03627078763998524  0.1944141219879529  0.9856688038745826  1.0000
  C   C2145     1.0  0.05371730415100826  0.18465989749931536  0.9782920981967139  1.0000
  C   C2146     1.0  0.05715047579532541  0.16442308035843325  0.9852460856200465  1.0000
  C   C2147     1.0  0.04291493603508884  0.15425722207402146  0.999036134773386  1.0000
  C   C2148     1.0  0.9922326778174463  0.16126195706945712  0.5699048996102037  1.0000
  C   C2149     1.0  0.9861554550665984  0.170703790959287  0.5907804686909697  1.0000
  C   C2150     1.0  0.9931022097403569  0.19040143791384484  0.5963746821581875  1.0000
  C   C2151     1.0  0.007274224443286625  0.19952520465258908  0.5809280491498401  1.0000
  C   C2152     1.0  0.013235691258656203  0.18926902828256537  0.5602511395062917  1.0000
  C   C2153     1.0  0.0057371703974777866  0.17005392989485113  0.5539608016001663  1.0000
  C   C2154     1.0  0.9853906004229668  0.20101711171786815  0.6204717997564624  1.0000
  C   C2155     1.0  0.9258338129070199  0.1756146396230337  0.6410951892776553  1.0000
  C   C2156     1.0  0.9398384426608261  0.18017022902999227  0.6591690253091511  1.0000
  C   C2157     1.0  0.9583448176178787  0.18961045571402793  0.6533549257799172  1.0000
  C   C2158     1.0  0.9630838898109304  0.19387519493858046  0.6288633920935044  1.0000
  C   C2159     1.0  0.9470813594545473  0.19207632804779476  0.6121257448794583  1.0000
  C   C2160     1.0  0.9292918707906684  0.1824962131136518  0.6180858908442722  1.0000
  C   C2161     1.0  0.9820311303626971  0.22530052911290738  0.6190445360189367  1.0000
  C   C2162     1.0  0.9777628040118993  0.23489139146322438  0.5976321328973244  1.0000
  C   C2163     1.0  0.9789973264781593  0.25601113270796066  0.5954526846605257  1.0000
  C   C2164     1.0  0.9833753055225448  0.2680039040838381  0.6156159825536056  1.0000
  C   C2165     1.0  0.9855170619311745  0.25897407019382884  0.638194761494279  1.0000
  C   C2166     1.0  0.9844714561575159  0.23801484753897567  0.6395708636233156  1.0000
  C   C2167     1.0  0.021211176403794194  0.20554075866732216  0.6408018264374902  1.0000
  C   C2168     1.0  0.03755766072856758  0.19804955339052646  0.653570639086631  1.0000
  C   C2169     1.0  0.03722207126123812  0.17821192340770858  0.661925765170814  1.0000
  C   C2170     1.0  0.020799229508342766  0.16602505127794231  0.6580398414395237  1.0000
  C   C2171     1.0  0.00449858260377023  0.17334760993005696  0.6451061142438708  1.0000
  C   C2172     1.0  0.003936515643289783  0.1934964987255844  0.6369766797942984  1.0000
  H   H1621     1.0  0.010620081642759741  0.11338007978549232  0.516647225420887  1.0000
  H   H1622     1.0  0.9794897188265211  0.1704667997180668  0.5140330667936619  1.0000
  H   H1623     1.0  0.9497984768382826  0.1534796339611686  0.9986079737945428  1.0000
  H   H1624     1.0  0.9793893125278983  0.0958413594661862  0.5040053420659788  1.0000
  H   H1625     1.0  0.009291239850518496  0.19328745952157994  0.5072267041959585  1.0000
  H   H1626     1.0  0.034208706848102184  0.2101136296457656  0.980169838082743  1.0000
  H   H1627     1.0  0.0703158004447899  0.15514463709687368  0.9790704077726621  1.0000
  H   H1628     1.0  0.04653437648545737  0.1388898044230791  0.5045985990154778  1.0000
  H   H1629     1.0  0.9862013476138586  0.14554048172205522  0.567450956644172  1.0000
  H   H1630     1.0  0.9751404069740471  0.16349382655905942  0.6024320714639592  1.0000
  H   H1631     1.0  0.013419991288956318  0.214595259269041  0.5848674930034858  1.0000
  H   H1632     1.0  0.025111044772025352  0.19543591350542144  0.5488693144348022  1.0000
  H   H1633     1.0  0.93739958807497  0.17473658909025697  0.6774199313047788  1.0000
  H   H1634     1.0  0.9695400990891871  0.19280742445405755  0.6671683786477782  1.0000
  H   H1635     1.0  0.9493076906027954  0.19538506374230874  0.5932280618119762  1.0000
  H   H1636     1.0  0.9187957254534778  0.17716288243141176  0.604043117858929  1.0000
  H   H1637     1.0  0.9736307224825084  0.22518885075858336  0.5818906856556633  1.0000
  H   H1638     1.0  0.9764040852314466  0.2624591981531542  0.5779164083664506  1.0000
  H   H1639     1.0  0.9888588549620395  0.2678161890495588  0.6547324793021025  1.0000
  H   H1640     1.0  0.9866432508176224  0.2313303432725364  0.6570616024573528  1.0000
  H   H1641     1.0  0.022686478297089502  0.22085581113782307  0.6333817603893065  1.0000
  H   H1642     1.0  0.051695915347289956  0.2072840019172485  0.6556568353136308  1.0000
  H   H1643     1.0  0.02041858227432672  0.15022874384198084  0.6631059292247868  1.0000
  H   H1644     1.0  0.9916525150595188  0.1624946670724772  0.6410309651308288  1.0000
  C   C2173     1.0  0.07368309361634484  0.10150162283247637  0.824068876465634  1.0000
  C   C2174     1.0  0.0781669535274359  0.12112375526381522  0.8176210624028832  1.0000
  C   C2175     1.0  0.06340167757487401  0.1330655205401754  0.8068172546528323  1.0000
  C   C2176     1.0  0.04409675502194396  0.12511739235325858  0.8013600164140156  1.0000
  C   C2177     1.0  0.03964374153691498  0.10495432722531985  0.808916331994026  1.0000
  C   C2178     1.0  0.05415729283545336  0.0936399297983604  0.8201301583085625  1.0000
  H   H1645     1.0  0.09326484963533582  0.12871319128087877  0.8207959849154927  1.0000
  H   H1646     1.0  0.0679307148646496  0.14879555505055916  0.8016230814222032  1.0000
  H   H1647     1.0  0.024196738715718903  0.09838586924923168  0.8077026044734914  1.0000
  H   H1648     1.0  0.05035516843689161  0.07887682661063221  0.8277463438559537  1.0000
  C   C2179     1.0  0.003933562359745844  0.11151189379034585  0.7691590451704129  1.0000
  C   C2180     1.0  0.005879644484463763  0.1310102606112416  0.7793314969008135  1.0000
  C   C2181     1.0  0.9879802978603919  0.14258270760842842  0.7814142460690853  1.0000
  C   C2182     1.0  0.9694354252437728  0.13385235435624754  0.7780325000327973  1.0000
  C   C2183     1.0  0.9675617701324323  0.11340689632542164  0.7720473175361696  1.0000
  C   C2184     1.0  0.9847497944428577  0.10244572902577832  0.7659696087263173  1.0000
  C   C2185     1.0  0.027180824156742514  0.14042754400545612  0.78926084027882  1.0000
  C   C2186     1.0  0.03562101621712425  0.1516228595596424  0.7653654663282035  1.0000
  C   C2187     1.0  0.02761204254713725  0.16993466716966268  0.7562761167349616  1.0000
  C   C2188     1.0  0.03484985879852197  0.17813810702415434  0.734853553861309  1.0000
  C   C2189     1.0  0.05061098376606189  0.1684565434497203  0.7226945077587328  1.0000
  C   C2190     1.0  0.05721901057567243  0.14987318783475698  0.7302780369602798  1.0000
  C   C2191     1.0  0.05034931112222367  0.1416033774475616  0.7514012499970294  1.0000
  C   C2192     1.0  0.012288443356642814  0.14519644373137167  0.8313022570700762  1.0000
  C   C2193     1.0  0.006815178686645718  0.15609998966813618  0.8517777859142533  1.0000
  C   C2194     1.0  0.009564394406733626  0.17708862040142398  0.8541326712978916  1.0000
  C   C2195     1.0  0.02027904447553045  0.18631255471090336  0.8350559226006984  1.0000
  C   C2196     1.0  0.027114599839884058  0.17524992068766873  0.8152933906407815  1.0000
  C   C2197     1.0  0.0220078215657072  0.15461068163486238  0.8121855950612958  1.0000
  C   C2198     1.0  0.00371526304192682  0.18838080768312365  0.87962094922912  1.0000
  C   C2199     1.0  0.9541203009577526  0.14813731478159775  0.903512694696865  1.0000
  C   C2200     1.0  0.9691043029353484  0.15382922319804124  0.9197120564769162  1.0000
  C   C2201     1.0  0.9833527328171009  0.16869427000856338  0.9137268739802886  1.0000
  C   C2202     1.0  0.9841447918857115  0.17653174946883535  0.8903830294261483  1.0000
  C   C2203     1.0  0.967255232796671  0.17256378941351594  0.8757294013493789  1.0000
  C   C2204     1.0  0.9527394478968376  0.1578167647326464  0.8817925962277451  1.0000
  C   C2205     1.0  0.9952326004932486  0.21109655369430844  0.8800636241394496  1.0000
  C   C2206     1.0  0.9873210964175049  0.21995416817079108  0.8595064544306625  1.0000
  C   C2207     1.0  0.981173153933808  0.2401196573427747  0.8597767764045934  1.0000
  C   C2208     1.0  0.9808911441285073  0.2511398663510343  0.8821699584463866  1.0000
  C   C2209     1.0  0.9873494000475624  0.24181272419781932  0.9028904098843936  1.0000
  C   C2210     1.0  0.9944922123682317  0.22199607856542994  0.9017202241583177  1.0000
  C   C2211     1.0  0.03916461800239945  0.2020092924343768  0.8939516423303212  1.0000
  C   C2212     1.0  0.05702552325312149  0.20169598190916593  0.9073806574379413  1.0000
  C   C2213     1.0  0.061291892155815174  0.1845182241550952  0.9206028490218827  1.0000
  C   C2214     1.0  0.04884211002798089  0.16767802502203655  0.9188430348291792  1.0000
  C   C2215     1.0  0.031171691453860992  0.1682321329256402  0.9056734562468753  1.0000
  C   C2216     1.0  0.025175833279444386  0.18590459165744144  0.893848230568482  1.0000
  H   H1649     1.0  0.017785041015546767  0.10330465780615332  0.7643694477799621  1.0000
  H   H1650     1.0  0.9878614591971491  0.1580766715859407  0.7885968279133256  1.0000
  H   H1651     1.0  0.9560978036783075  0.14282673412653005  0.783627620620733  1.0000
  H   H1652     1.0  0.9830577791945405  0.08668422054932627  0.7597503890844743  1.0000
  H   H1653     1.0  0.01590982676942769  0.1780365676475417  0.7657664136855101  1.0000
  H   H1654     1.0  0.029310559272282342  0.19261079304217119  0.7280791763401184  1.0000
  H   H1655     1.0  0.06909760969046745  0.1416102682307421  0.7204412198954979  1.0000
  H   H1656     1.0  0.05683393753344257  0.12746420932607844  0.756615379883452  1.0000
  H   H1657     1.0  0.008588251793525625  0.1291293180210548  0.8301193716539497  1.0000
  H   H1658     1.0  0.000297343969189123  0.14675366047235047  0.8661375068784268  1.0000
  H   H1659     1.0  0.02431415060822965  0.20218046874312645  0.8368429504149386  1.0000
  H   H1660     1.0  0.03531757484368527  0.18323790156518385  0.8016212671807674  1.0000
  H   H1661     1.0  0.9698539903452746  0.1458628166110761  0.9365554739666683  1.0000
  H   H1662     1.0  0.9948959102132565  0.1714107572046949  0.9272230160210323  1.0000
  H   H1663     1.0  0.9671519993642285  0.17960328493875272  0.8579226216572294  1.0000
  H   H1664     1.0  0.9408593698556024  0.1537094725249359  0.8687082869929226  1.0000
  H   H1665     1.0  0.987868068473901  0.2113641885912668  0.8422167335477095  1.0000
  H   H1666     1.0  0.9762914517450826  0.24701381289496435  0.843457674689781  1.0000
  H   H1667     1.0  0.9878297971130191  0.2500283397015435  0.9198444961017279  1.0000
  H   H1668     1.0  0.9992915302212064  0.21456723730582647  0.9180538398046163  1.0000
  H   H1669     1.0  0.03526733478662557  0.2158116167974912  0.8844976302084883  1.0000
  H   H1670     1.0  0.06609587482745004  0.2154065720430762  0.9093364097057086  1.0000
  H   H1671     1.0  0.05130546116208139  0.15410539818896912  0.9292585949119739  1.0000
  H   H1672     1.0  0.021561468494282705  0.15467740225759857  0.9057206265242055  1.0000
  C   C2217     1.0  0.8323707588285497  0.02911749995212641  0.6221296535804752  1.0000
  C   C2218     1.0  0.8460240405517079  0.01667907211317907  0.633673308988036  1.0000
  C   C2219     1.0  0.8631558243423354  0.025004770298528583  0.6447621340676475  1.0000
  C   C2220     1.0  0.8670506675397713  0.04627958195797545  0.6436830232616474  1.0000
  C   C2221     1.0  0.8533765649414065  0.05842750985698466  0.631655872511452  1.0000
  C   C2222     1.0  0.8360009020288359  0.05001084925722552  0.6214984789849685  1.0000
  H   H1673     1.0  0.8443218759928911  0.00015896903666589787  0.6347834433225877  1.0000
  H   H1674     1.0  0.8729803529530321  0.014766028229281872  0.6551659015811097  1.0000
  H   H1675     1.0  0.8551403169063384  0.07543256455113975  0.6317712582667675  1.0000
  H   H1676     1.0  0.8254654343951515  0.060009368910033466  0.6121019783166496  1.0000
  C   C2223     1.0  0.8974794937857794  0.0837231446263466  0.6309160248539423  1.0000
  C   C2224     1.0  0.8924773681261002  0.07937229874706138  0.6550258421422676  1.0000
  C   C2225     1.0  0.8979545420727674  0.09359784014541943  0.6724743091508512  1.0000
  C   C2226     1.0  0.9071512448330763  0.11182829846198165  0.6671681972236346  1.0000
  C   C2227     1.0  0.9114837989300962  0.1166052435410996  0.6432258344198316  1.0000
  C   C2228     1.0  0.907091244242053  0.10219043226538159  0.6252169482317366  1.0000
  C   C2229     1.0  0.8826277951340823  0.057557243370627634  0.661795139787438  1.0000
  C   C2230     1.0  0.9031872865125883  0.044334100097713075  0.665519233182657  1.0000
  C   C2231     1.0  0.9138723295833658  0.04401135652748415  0.6873258709682637  1.0000
  C   C2232     1.0  0.9314831558941155  0.03332999362483669  0.6894902610011455  1.0000
  C   C2233     1.0  0.9395412199283601  0.021831767514797075  0.6703492881571258  1.0000
  C   C2234     1.0  0.9295039265755778  0.023026147042620307  0.64834036245143  1.0000
  C   C2235     1.0  0.9120063884474514  0.0341287961473625  0.6457556126778787  1.0000
  C   C2236     1.0  0.8559597949313682  0.07495953924894402  0.6903284405444744  1.0000
  C   C2237     1.0  0.846305638049539  0.07713417351818888  0.7126345389973504  1.0000
  C   C2238     1.0  0.8496589267908992  0.0625093835445465  0.7305302165198528  1.0000
  C   C2239     1.0  0.8591429335960338  0.04427459954842032  0.7233476346756125  1.0000
  C   C2240     1.0  0.8671241831480967  0.04190031386678279  0.7005589480008197  1.0000
  C   C2241     1.0  0.8683843815208376  0.05844325693702793  0.6853664902176247  1.0000
  C   C2242     1.0  0.8494306160502643  0.06904197820014941  0.7587017575345953  1.0000
  C   C2243     1.0  0.9111070802900648  0.09577919234497667  0.7552256709436469  1.0000
  C   C2244     1.0  0.8944859813471666  0.10830169006792044  0.7537906059679474  1.0000
  C   C2245     1.0  0.8746218286905996  0.10058584118890747  0.7554832932275272  1.0000
  C   C2246     1.0  0.8713386728949234  0.07953515884913265  0.7596760051856075  1.0000
  C   C2247     1.0  0.8888131551286971  0.06719213301046865  0.7610094726409034  1.0000
  C   C2248     1.0  0.9080606189290273  0.07532508531484533  0.7597141042557588  1.0000
  C   C2249     1.0  0.8470105054185565  0.05081740771966642  0.7773993297717111  1.0000
  C   C2250     1.0  0.8340551902386846  0.034263866268130695  0.7727566859375583  1.0000
  C   C2251     1.0  0.8319192567542921  0.01801056570794541  0.7891247721711367  1.0000
  C   C2252     1.0  0.8436446597143826  0.01813856061994337  0.8099395641638042  1.0000
  C   C2253     1.0  0.8565703764534841  0.03469043537998197  0.8142157312279301  1.0000
  C   C2254     1.0  0.8569699465871695  0.05116101543784676  0.799275453004308  1.0000
  C   C2255     1.0  0.8309223150782007  0.0967992578209326  0.7837437320726227  1.0000
  C   C2256     1.0  0.8134014866414645  0.10692039983728471  0.7908555585008679  1.0000
  C   C2257     1.0  0.7946824116275556  0.10128018864724675  0.7808754163626597  1.0000
  C   C2258     1.0  0.7940155849568338  0.08610524859109907  0.763834246556408  1.0000
  C   C2259     1.0  0.811268614089839  0.07688820113426531  0.7553798814656879  1.0000
  C   C2260     1.0  0.830137121710023  0.08162994299202513  0.7657954415484826  1.0000
  H   H1677     1.0  0.8932269375182561  0.0728261215430511  0.6165067750985721  1.0000
  H   H1678     1.0  0.8958301666701187  0.09022466171786792  0.691429685095991  1.0000
  H   H1679     1.0  0.911011062561098  0.12143965299553748  0.6830551466284451  1.0000
  H   H1680     1.0  0.9111697989519111  0.10545097308315174  0.6071541790729991  1.0000
  H   H1681     1.0  0.9080827138219628  0.05198495046017033  0.703752012927787  1.0000
  H   H1682     1.0  0.9399516430816125  0.03382506877455661  0.706622142879186  1.0000
  H   H1683     1.0  0.9363178052621501  0.014799665216054605  0.6329967783566347  1.0000
  H   H1684     1.0  0.9045234226691797  0.034819408610096754  0.6279462930477192  1.0000
  H   H1685     1.0  0.8543498869071238  0.08780127316263521  0.6781380080650593  1.0000
  H   H1686     1.0  0.8386755503742886  0.09146453725808287  0.7174549784922094  1.0000
  H   H1687     1.0  0.8620711239711119  0.03183836322982568  0.7357915166836058  1.0000
  H   H1688     1.0  0.8748491925761972  0.027369344145732902  0.6962718954880792  1.0000
  H   H1689     1.0  0.8975174921880648  0.1245292710764349  0.7514266493771302  1.0000
  H   H1690     1.0  0.8613518497957784  0.11030272275276093  0.7528852994914947  1.0000
  H   H1691     1.0  0.887372736718332  0.05050630951166063  0.763866902902252  1.0000
  H   H1692     1.0  0.9203730835051097  0.06475014873091192  0.7616027295904023  1.0000
  H   H1693     1.0  0.825454351185392  0.03342465199693051  0.7564956399486907  1.0000
  H   H1694     1.0  0.8214156227728359  0.005249091026093405  0.7860913604905179  1.0000
  H   H1695     1.0  0.8658490357721627  0.0345407118968909  0.8306908577062194  1.0000
  H   H1696     1.0  0.8661008580173388  0.06443493503388892  0.8048723878336795  1.0000
  H   H1697     1.0  0.8450261079401173  0.10007844959328675  0.7925645739333697  1.0000
  H   H1698     1.0  0.8144677622838491  0.11842405256870589  0.8053876324014401  1.0000
  H   H1699     1.0  0.7798407237489603  0.08116454403564886  0.7554578938474263  1.0000
  H   H1700     1.0  0.8096898921887102  0.06507500151064174  0.7418873679078158  1.0000
  C   C2261     1.0  0.8459871155228931  0.01611322958690213  0.8710359587550244  1.0000
  C   C2262     1.0  0.8563703030416318  0.002090880884298028  0.8850673020193222  1.0000
  C   C2263     1.0  0.8712376320860045  0.008596489232341235  0.9009255864094473  1.0000
  C   C2264     1.0  0.877594424283591  0.028940356831115434  0.9019651467521473  1.0000
  C   C2265     1.0  0.8667189240069748  0.04295416929180484  0.8881224845971705  1.0000
  C   C2266     1.0  0.8504938999040226  0.036685774765989325  0.8741709679560465  1.0000
  H   H1701     1.0  0.8519748631019776  0.9857974344521887  0.8831968190990362  1.0000
  H   H1702     1.0  0.8782230406461691  0.9974415045117244  0.912260966900181  1.0000
  H   H1703     1.0  0.8692892303420305  0.05953624285420337  0.8894541378110304  1.0000
  H   H1704     1.0  0.8418391660993285  0.048613150096180585  0.8648493954590253  1.0000
  C   C2267     1.0  0.9129652735628675  0.06083442172548218  0.8897807012694703  1.0000
  C   C2268     1.0  0.9076471665400861  0.05613450426673148  0.9136143910112704  1.0000
  C   C2269     1.0  0.9168023054280211  0.06804629554462242  0.9321232821390655  1.0000
  C   C2270     1.0  0.9287140781915146  0.08508445706384808  0.9270161924973538  1.0000
  C   C2271     1.0  0.9327026227624524  0.0902217860131959  0.9033076854146224  1.0000
  C   C2272     1.0  0.9252477724725263  0.07768011696982104  0.8846663546620156  1.0000
  C   C2273     1.0  0.8933175273041514  0.036983115551200145  0.9211616353841021  1.0000
  C   C2274     1.0  0.9102975012079448  0.020548927561586963  0.92877056396575  1.0000
  C   C2275     1.0  0.9181855386497081  0.02033182003030724  0.951922098927698  1.0000
  C   C2276     1.0  0.9331093341898465  0.006485899804063187  0.9582900863672745  1.0000
  C   C2277     1.0  0.9397442006046015  0.9922338926631183  0.9417750465773982  1.0000
  C   C2278     1.0  0.9322334046835856  0.9922069241624302  0.9183386757100332  1.0000
  C   C2279     1.0  0.9186533517400329  0.007139077183099969  0.9116296108805306  1.0000
  C   C2280     1.0  0.8700743414746045  0.062438931879254596  0.9441825449626741  1.0000
  C   C2281     1.0  0.8584628225229662  0.06846930766021421  0.9636566125343023  1.0000
  C   C2282     1.0  0.8548212372549623  0.055151946860981044  0.9827333612314957  1.0000
  C   C2283     1.0  0.8607219818886563  0.03500410459960229  0.9795076399586844  1.0000
  C   C2284     1.0  0.8706939913544792  0.028724387184854337  0.958984940837177  1.0000
  C   C2285     1.0  0.8776722868261967  0.04275791599837953  0.9422503778335717  1.0000
  C   C2286     1.0  0.8496473751971716  0.06505465763401665  0.5085839563564775  1.0000
  C   C2287     1.0  0.9081905976017256  0.09853068127437621  0.512701939709818  1.0000
  C   C2288     1.0  0.890653921985178  0.10941347959701808  0.5092712817244216  1.0000
  C   C2289     1.0  0.8718473270400844  0.09975739310965068  0.5102120929057724  1.0000
  C   C2290     1.0  0.8700317778393168  0.0785967434101053  0.5140488869789819  1.0000
  C   C2291     1.0  0.8884735607069895  0.06803592489603529  0.5173605851534345  1.0000
  C   C2292     1.0  0.9069585786718998  0.07751938434275013  0.5164441936618093  1.0000
  C   C2293     1.0  0.8431463720217639  0.04852894408989983  0.5282914623736472  1.0000
  C   C2294     1.0  0.8244691699930508  0.038007413451852455  0.5271308921271808  1.0000
  C   C2295     1.0  0.8180970030243017  0.024390871330496895  0.544640136223863  1.0000
  C   C2296     1.0  0.8305567489046974  0.02057247393794129  0.5639893839847098  1.0000
  C   C2297     1.0  0.8494233073077025  0.030068075205156433  0.5652003901430909  1.0000
  C   C2298     1.0  0.8549739379074146  0.04424530517705725  0.5483401002079862  1.0000
  C   C2299     1.0  0.8250353557407365  0.09420613628642015  0.5239449027418132  1.0000
  C   C2300     1.0  0.808256825904026  0.10656395778944175  0.5224708315752444  1.0000
  C   C2301     1.0  0.7946989802348396  0.10365509046824997  0.5034011996678651  1.0000
  C   C2302     1.0  0.7984694031990328  0.08856918101927504  0.9861913054080862  1.0000
  C   C2303     1.0  0.8149829590219361  0.07619577329176488  0.9886822588994079  1.0000
  C   C2304     1.0  0.8292915618893991  0.07924912098918842  0.507018211570159  1.0000
  H   H1705     1.0  0.9073175355173103  0.05211597951293471  0.8748621939430775  1.0000
  H   H1706     1.0  0.9141809337508406  0.06579702140937531  0.9512109162848734  1.0000
  H   H1707     1.0  0.9354780031461017  0.09391932049516462  0.9418911580292879  1.0000
  H   H1708     1.0  0.9298293708805663  0.08123164653073034  0.8661211787055049  1.0000
  H   H1709     1.0  0.9133923352587134  0.03091469351459909  0.9661892935786468  1.0000
  H   H1710     1.0  0.9376944507696748  0.006546724500142256  0.9769967298115693  1.0000
  H   H1711     1.0  0.9367686027477504  0.9810276822351046  0.904390787551781  1.0000
  H   H1712     1.0  0.9131329706376025  0.006322068022990368  0.8932821872405196  1.0000
  H   H1713     1.0  0.8733680484855189  0.07448307674288662  0.9312742171471219  1.0000
  H   H1714     1.0  0.8538541750030392  0.08489934123688642  0.9649138818492957  1.0000
  H   H1715     1.0  0.8583284387384459  0.02393878888111913  0.9936931937450233  1.0000
  H   H1716     1.0  0.8755107511463527  0.012819657904024045  0.958179417639692  1.0000
  H   H1717     1.0  0.8914655419035952  0.12582976242996402  0.5059382299282698  1.0000
  H   H1718     1.0  0.8586915411675926  0.10865991738465006  0.5057851129144758  1.0000
  H   H1719     1.0  0.8884504432433454  0.05150465079778232  0.5172994996442919  1.0000
  H   H1720     1.0  0.9205792289805096  0.06871461030027755  0.5178516095980276  1.0000
  H   H1721     1.0  0.8144176925033122  0.03908994013361825  0.5115380725073241  1.0000
  H   H1722     1.0  0.8029246877022745  0.01710630273519618  0.5437921597767809  1.0000
  H   H1723     1.0  0.8594238782562051  0.027548470080916126  0.5808732590584796  1.0000
  H   H1724     1.0  0.8691967011639994  0.051640861263496686  0.5531794078137772  1.0000
  H   H1725     1.0  0.8347099863525088  0.09589569950622212  0.53987376112379  1.0000
  H   H1726     1.0  0.8052456280561389  0.11804572836273236  0.5358212900286954  1.0000
  H   H1727     1.0  0.7886843079560122  0.0858938003809361  0.9702804080163235  1.0000
  H   H1728     1.0  0.8168106930615759  0.06440831997037946  0.9742771818993399  1.0000
  C   C2305     1.0  0.4845135206419861  0.4609136117383899  0.5716893874864338  1.0000
  C   C2306     1.0  0.4769670447918135  0.44237738280870303  0.5636920298133861  1.0000
  C   C2307     1.0  0.4883654527276832  0.43031207314842224  0.5479692692585134  1.0000
  C   C2308     1.0  0.5086812094163908  0.4353451249902024  0.5427235715711083  1.0000
  C   C2309     1.0  0.5161718162717269  0.4540849502420008  0.5526032047337746  1.0000
  C   C2310     1.0  0.5041168422211574  0.4664804938755  0.5663642260241416  1.0000
  H   H1729     1.0  0.4616209230639581  0.4379471912591387  0.5698862129234152  1.0000
  H   H1730     1.0  0.48186080404153975  0.4159916072251179  0.5424256731273537  1.0000
  H   H1731     1.0  0.5319414905881173  0.4580543445267587  0.550746328624257  1.0000
  H   H1732     1.0  0.509741721175893  0.481147332584764  0.5730440815665283  1.0000
  C   C2311     1.0  0.5458833851699458  0.4453476719318968  0.5057543928435826  1.0000
  C   C2312     1.0  0.5433518230111487  0.426202738369087  0.515910153552774  1.0000
  C   C2313     1.0  0.5600745484202572  0.4129719889478733  0.5157445495945163  1.0000
  C   C2314     1.0  0.5790939718179567  0.41901763007448756  0.5075629194188367  1.0000
  C   C2315     1.0  0.581438949082138  0.4390139247544853  0.5003569025386316  1.0000
  C   C2316     1.0  0.5646242942537488  0.45191737558842743  0.9980256022936584  1.0000
  C   C2317     1.0  0.5227669400328626  0.4184730287694077  0.5290617892872781  1.0000
  C   C2318     1.0  0.5107499991616616  0.4072205157948158  0.5071710976959519  1.0000
  C   C2319     1.0  0.5129556787379863  0.3867106445171238  0.5000502957359854  1.0000
  C   C2320     1.0  0.4994057764799151  0.37699230931959277  0.984397020628103  1.0000
  C   C2321     1.0  0.484067847359188  0.38824230112645464  0.9732085936936673  1.0000
  C   C2322     1.0  0.48312612079934397  0.408867473460804  0.9780689465001133  1.0000
  C   C2323     1.0  0.4970661375787347  0.41821158794768865  0.9933974723909917  1.0000
  C   C2324     1.0  0.5412064943568936  0.41403519537661443  0.5697871553410218  1.0000
  C   C2325     1.0  0.5461788588418687  0.4041096383580031  0.5904818445506408  1.0000
  C   C2326     1.0  0.5400319596914325  0.3839857971008168  0.5943100754042735  1.0000
  C   C2327     1.0  0.5259245107370173  0.3755860495651824  0.5780049433485165  1.0000
  C   C2328     1.0  0.5194487366007828  0.3863296628155766  0.5582128392531964  1.0000
  C   C2329     1.0  0.5276457080499298  0.40550198201212656  0.5531794078137772  1.0000
  C   C2330     1.0  0.5460611731463528  0.37266740135410387  0.6186796920662019  1.0000
  C   C2331     1.0  0.5971285720422586  0.40884516109376123  0.6459764058606129  1.0000
  C   C2332     1.0  0.5816138151586201  0.40356383704300797  0.6616307695133566  1.0000
  C   C2333     1.0  0.5660284256887774  0.39039051406584113  0.6540046056380688  1.0000
  C   C2334     1.0  0.5659761849544866  0.38278615650069087  0.6304439592323531  1.0000
  C   C2335     1.0  0.583046071701259  0.3862093535834207  0.6164918983187987  1.0000
  C   C2336     1.0  0.5980526949937783  0.3994013709578415  0.6235478461108219  1.0000
  C   C2337     1.0  0.5528154895107865  0.3494472261077659  0.6143458321244184  1.0000
  C   C2338     1.0  0.5601969632073908  0.3416500473811832  0.5924129231348816  1.0000
  C   C2339     1.0  0.5668633063814589  0.3215746840638166  0.5905589498116613  1.0000
  C   C2340     1.0  0.5672017701794893  0.30953203458086337  0.6108488817569585  1.0000
  C   C2341     1.0  0.561089166115674  0.31733710368268697  0.6331468161233734  1.0000
  C   C2342     1.0  0.5543772852757198  0.3371442801278321  0.6346513665460631  1.0000
  C   C2343     1.0  0.5115234816049974  0.35855215859999623  0.6381983899771505  1.0000
  C   C2344     1.0  0.49439057173075907  0.36166339017326493  0.6520561103360445  1.0000
  C   C2345     1.0  0.489734072142059  0.38070606186208666  0.6611715850059616  1.0000
  C   C2346     1.0  0.5023775465138058  0.39743452492136827  0.6553837919775464  1.0000
  C   C2347     1.0  0.5195385817598902  0.39398978015995784  0.6414832555207679  1.0000
  C   C2348     1.0  0.5251152185602497  0.37452590791835694  0.6335085758656673  1.0000
  H   H1733     1.0  0.5325481077980287  0.4551671754524783  0.5055510757692606  1.0000
  H   H1734     1.0  0.5586744359324416  0.39701642474737714  0.52204920186557  1.0000
  H   H1735     1.0  0.5913427824435936  0.4078920039972553  0.5087658884876571  1.0000
  H   H1736     1.0  0.5670255632204189  0.46743861758916216  0.9912802526354402  1.0000
  H   H1737     1.0  0.5250093709974037  0.378094129644874  0.5083667784775863  1.0000
  H   H1738     1.0  0.5008093455141873  0.36041317548239926  0.9818607111008869  1.0000
  H   H1739     1.0  0.4726501455241689  0.4188019151517166  0.9685822780324365  1.0000
  H   H1740     1.0  0.49727032909518387  0.4349390108953649  0.9954892927664424  1.0000
  H   H1741     1.0  0.548421402778333  0.42927787443263876  0.5668201448969524  1.0000
  H   H1742     1.0  0.5557621707775137  0.4126369336569977  0.6031291030235846  1.0000
  H   H1743     1.0  0.5194838665606122  0.36121627263233674  0.5820595915333341  1.0000
  H   H1744     1.0  0.5073782798253395  0.37983143784112117  0.547245568349782  1.0000
  H   H1745     1.0  0.5819340359321054  0.40922365770902575  0.679864621639488  1.0000
  H   H1746     1.0  0.5541951225540344  0.3862833443327087  0.6668184114748169  1.0000
  H   H1747     1.0  0.5836267128947308  0.3799212552528026  0.5980715421730696  1.0000
  H   H1748     1.0  0.6102194081679145  0.40300740354958114  0.6106039591631286  1.0000
  H   H1749     1.0  0.5608217296908149  0.3512840941240227  0.5762690771427652  1.0000
  H   H1750     1.0  0.5717164024803952  0.3158767739093498  0.5725930611455943  1.0000
  H   H1751     1.0  0.5607573534183372  0.3076052689060216  0.6488880819408911  1.0000
  H   H1752     1.0  0.5498007877702702  0.3428364124101297  0.652295590205567  1.0000
  H   H1753     1.0  0.5134635070522976  0.34367116318620833  0.6295366570903211  1.0000
  H   H1754     1.0  0.48473202211491756  0.34810756215469907  0.6544777598045194  1.0000
  H   H1755     1.0  0.4994137481180059  0.412816269377732  0.661337225249048  1.0000
  H   H1756     1.0  0.5290425433642613  0.40718173690612974  0.6369478333554696  1.0000
  C   C2349     1.0  0.45797299073904246  0.4443362295074218  0.8298127648513034  1.0000
  C   C2350     1.0  0.45651674575944134  0.42466949133657406  0.820362381212342  1.0000
  C   C2351     1.0  0.47283653981023777  0.4167727864035204  0.8081942639025869  1.0000
  C   C2352     1.0  0.49047958030169025  0.4281903610045784  0.8038781835268738  1.0000
  C   C2353     1.0  0.49238468756217796  0.4472810052385753  0.8154657435771804  1.0000
  C   C2354     1.0  0.47601909627774075  0.45547286284105604  0.8283922138070902  1.0000
  H   H1757     1.0  0.4426824757553032  0.41618697541612065  0.8223507898259534  1.0000
  H   H1758     1.0  0.4713304121182875  0.4016217221868995  0.800795787327489  1.0000
  H   H1759     1.0  0.5062978913815552  0.45539768730987645  0.8137893844905226  1.0000
  H   H1760     1.0  0.47799599517089153  0.4702245497589761  0.8371840278048647  1.0000
  C   C2355     1.0  0.5210143803095267  0.4518785443317493  0.7675552557411862  1.0000
  C   C2356     1.0  0.5248807968530387  0.4321023860186888  0.7755451750243473  1.0000
  C   C2357     1.0  0.5448299069202558  0.42491628712151547  0.7715701720385603  1.0000
  C   C2358     1.0  0.5602268353778851  0.4375727871602731  0.763362543783106  1.0000
  C   C2359     1.0  0.5562583324776974  0.45766666543796014  0.7581955841740136  1.0000
  C   C2360     1.0  0.5364583969270487  0.464753769563436  0.760623039215083  1.0000
  C   C2361     1.0  0.5086258513467219  0.4177012981784527  0.7881069827256659  1.0000
  C   C2362     1.0  0.5002071231558556  0.4053045091835617  0.7646542836853789  1.0000
  C   C2363     1.0  0.5099819338328994  0.3879629325484819  0.7546705130642992  1.0000
  C   C2364     1.0  0.5025399937887224  0.37859750095859185  0.733861163795939  1.0000
  C   C2365     1.0  0.48478629629034725  0.38518277216069674  0.7232315232237227  1.0000
  C   C2366     1.0  0.4751414424166307  0.40194422289578463  0.7322374177109189  1.0000
  C   C2367     1.0  0.4829169450995064  0.4125069545944216  0.7521977019873354  1.0000
  C   C2368     1.0  0.5310338845128144  0.4153883987427952  0.8257361643451129  1.0000
  C   C2369     1.0  0.53850167355781  0.4062253906272302  0.8458107458319835  1.0000
  C   C2370     1.0  0.5338636842931196  0.3860471265681732  0.851592733287804  1.0000
  C   C2371     1.0  0.5212116752508229  0.3753154987063718  0.8351938049498175  1.0000
  C   C2372     1.0  0.5136042467839933  0.3844403904557691  0.8145658798250351  1.0000
  C   C2373     1.0  0.5187946089887739  0.4045168711967366  0.8092483381767732  1.0000
  C   C2374     1.0  0.5393649166722726  0.3780760005207758  0.8785995313007778  1.0000
  C   C2375     1.0  0.5902059395299575  0.41733355710508213  0.9062485707820166  1.0000
  C   C2376     1.0  0.5735593378862816  0.41277224943152574  0.9206282484019835  1.0000
  C   C2377     1.0  0.5584276532936028  0.39898375100128447  0.9133422547959039  1.0000
  C   C2378     1.0  0.5591163743573652  0.3899411528403138  0.8902433328355935  1.0000
  C   C2379     1.0  0.5772761527638142  0.39298353799295827  0.8771045963576977  1.0000
  C   C2380     1.0  0.5923152447674195  0.4067801014825174  0.8846518407305293  1.0000
  C   C2381     1.0  0.5465096689921612  0.354968683943467  0.8831859336504215  1.0000
  C   C2382     1.0  0.5524408965189364  0.3417608286867882  0.8643940208586454  1.0000
  C   C2383     1.0  0.5573752001661365  0.3214464331517501  0.8681495006307034  1.0000
  C   C2384     1.0  0.555656738504819  0.31349861676549473  0.8910742554131793  1.0000
  C   C2385     1.0  0.5496565637704913  0.32652351951278213  0.9099024530336709  1.0000
  C   C2386     1.0  0.5455143849538392  0.3466507805418317  0.9060998029842828  1.0000
  C   C2387     1.0  0.5029211960527261  0.36618787468200253  0.8921301439288014  1.0000
  C   C2388     1.0  0.4848506023233893  0.36850617324083434  0.9044180011733177  1.0000
  C   C2389     1.0  0.48074922600192904  0.38663687551962633  0.9161507005384865  1.0000
  C   C2390     1.0  0.49351807949786364  0.40350119876815044  0.9129540071286477  1.0000
  C   C2391     1.0  0.5113095643928761  0.40118652402654814  0.8991857288725373  1.0000
  C   C2392     1.0  0.5174139168336614  0.3820833977911412  0.8908638034066292  1.0000
  H   H1761     1.0  0.5057925967041296  0.4581256052084906  0.7694003392813711  1.0000
  H   H1762     1.0  0.5486545353470346  0.40913945980209154  0.7757628839966405  1.0000
  H   H1763     1.0  0.5757527503520931  0.43166791195642173  0.7616335716948105  1.0000
  H   H1764     1.0  0.5330570072968888  0.48065564247951076  0.7571469526241346  1.0000
  H   H1765     1.0  0.5234257287236976  0.3820717510672599  0.7638124756591786  1.0000
  H   H1766     1.0  0.5105547820290393  0.3645910988638506  0.7266495540887263  1.0000
  H   H1767     1.0  0.4607896766007981  0.4066588358142234  0.7239971331096205  1.0000
  H   H1768     1.0  0.47487455170002585  0.4268103802868373  0.7570326554136807  1.0000
  H   H1769     1.0  0.5354878359652653  0.4309941575793417  0.824003563773946  1.0000
  H   H1770     1.0  0.5479617705390585  0.41563335614546904  0.8579117362086148  1.0000
  H   H1771     1.0  0.516645158688315  0.3593762257369518  0.8384050122911424  1.0000
  H   H1772     1.0  0.5023651732876224  0.37587143868421113  0.8039053971484105  1.0000
  H   H1773     1.0  0.5717517493481796  0.42106541441289286  0.9376186194480336  1.0000
  H   H1774     1.0  0.5454184329673331  0.39721913257827474  0.9249533999848756  1.0000
  H   H1775     1.0  0.5787214503427861  0.38639399180498535  0.8592034761108878  1.0000
  H   H1776     1.0  0.6052480873774707  0.40994809195001913  0.8730914943017594  1.0000
  H   H1777     1.0  0.5541548507245978  0.34799641308560525  0.8468757055547844  1.0000
  H   H1778     1.0  0.5622978966361455  0.31210520934918634  0.8532745350987693  1.0000
  H   H1779     1.0  0.5478394925962796  0.3204502023269384  0.928037610425696  1.0000
  H   H1780     1.0  0.5411826337931669  0.35613820143068714  0.9209566261018591  1.0000
  H   H1781     1.0  0.505973054005674  0.35145270121568734  0.8834217850370726  1.0000
  H   H1782     1.0  0.47446836881290866  0.3555888388552783  0.906163301434535  1.0000
  H   H1783     1.0  0.490020385717938  0.4185283617446189  0.9208931276516069  1.0000
  H   H1784     1.0  0.5214865978459675  0.41407088996200936  0.8978631468658561  1.0000
  C   C2393     1.0  0.6988239854809444  0.5361251683241358  0.6348086612785451  1.0000
  C   C2394     1.0  0.6866783744263177  0.5516059532076356  0.6421960709808846  1.0000
  C   C2395     1.0  0.6689951225320481  0.5479226363637875  0.6551238111797995  1.0000
  C   C2396     1.0  0.6630014259697985  0.5283041092904404  0.6603355825523556  1.0000
  C   C2397     1.0  0.6757956063624995  0.5122904551710871  0.652866531985406  1.0000
  C   C2398     1.0  0.6935718394171072  0.5165156653177977  0.6410567273592167  1.0000
  H   H1785     1.0  0.6908101491178836  0.567699702006869  0.6387760444503018  1.0000
  H   H1786     1.0  0.6605213930953241  0.561192260480752  0.6611670494023721  1.0000
  H   H1787     1.0  0.6732909237865488  0.4964176606364506  0.6578482575439056  1.0000
  H   H1788     1.0  0.703196260372906  0.5040065613928022  0.63646306804383  1.0000
  C   C2399     1.0  0.6307198992355431  0.4969345614355596  0.6436091836352112  1.0000
  C   C2400     1.0  0.6306513944674152  0.5031277769025184  0.667465369970815  1.0000
  C   C2401     1.0  0.6189549349208909  0.49158624034212284  0.6836701744751735  1.0000
  C   C2402     1.0  0.6099506937698417  0.4735562603721399  0.6768932570159727  1.0000
  C   C2403     1.0  0.6111352071937807  0.4669409766555878  0.6531756787260624  1.0000
  C   C2404     1.0  0.6210778470679535  0.4791333842159125  0.636063934927959  1.0000
  C   C2405     1.0  0.6431469439173191  0.5231147399317552  0.676300725763048  1.0000
  C   C2406     1.0  0.6248885370950533  0.5391063236869387  0.677412492914892  1.0000
  C   C2407     1.0  0.6142566338046818  0.5431209594139081  0.6985360687999287  1.0000
  C   C2408     1.0  0.6015717090650775  0.5596763866217244  0.7009109108393605  1.0000
  C   C2409     1.0  0.5974968429250308  0.5719271159219949  0.6813221832089911  1.0000
  C   C2410     1.0  0.6054734399176387  0.5662594869034004  0.6591013541035966  1.0000
  C   C2411     1.0  0.6188885887533603  0.5498699940729669  0.6568025287803239  1.0000
  C   C2412     1.0  0.6620638582656563  0.5016481865497975  0.7087937898778108  1.0000
  C   C2413     1.0  0.6694184428391491  0.49944122475249153  0.7314101236162046  1.0000
  C   C2414     1.0  0.669223098646406  0.5155332826155453  0.7482263274844199  1.0000
  C   C2415     1.0  0.6650067496881217  0.5348449691818016  0.7397302348406771  1.0000
  C   C2416     1.0  0.6590943093452216  0.53778447158485  0.716204966142959  1.0000
  C   C2417     1.0  0.6549352746046355  0.5207433054745366  0.7014098272341991  1.0000
  C   C2418     1.0  0.6694520316767062  0.5112393297314087  0.7762345867699424  1.0000
  C   C2419     1.0  0.6068626316465059  0.48580248924006936  0.7763416270146533  1.0000
  C   C2420     1.0  0.6231362287390094  0.4726155166730788  0.7758717384827871  1.0000
  C   C2421     1.0  0.6429210192103365  0.4800617424314583  0.7765411935725888  1.0000
  C   C2422     1.0  0.6467052452716796  0.501092809643737  0.7775771254324173  1.0000
  C   C2423     1.0  0.62983111739013  0.5140753823554963  0.7775081842578577  1.0000
  C   C2424     1.0  0.6102441104600187  0.5065515120556512  0.7765611502283822  1.0000
  C   C2425     1.0  0.6733778410558415  0.5302803597690864  0.7940032673919406  1.0000
  C   C2426     1.0  0.6898087694488115  0.5435914674958316  0.7907902458091798  1.0000
  C   C2427     1.0  0.6934607361882102  0.5594357036009054  0.8065795890247455  1.0000
  C   C2428     1.0  0.6809634193557238  0.56234407860131  0.82668682685746  1.0000
  C   C2429     1.0  0.664122549874911  0.5498039262674054  0.8296839537093632  1.0000
  C   C2430     1.0  0.6611697024877184  0.5339368310073614  0.8141486042948064  1.0000
  C   C2431     1.0  0.6878490656022707  0.48452543326522324  0.8025011742771192  1.0000
  C   C2432     1.0  0.7045906553271147  0.4726541468909445  0.8091177127933972  1.0000
  C   C2433     1.0  0.7221450108295855  0.47343930385543265  0.7952333230853973  1.0000
  C   C2434     1.0  0.7228725562959465  0.48634349726960263  0.7757538127894615  1.0000
  C   C2435     1.0  0.7065434011060151  0.49807881378483665  0.7696978748768386  1.0000
  C   C2436     1.0  0.6882387207989394  0.49645935074249553  0.7822651253024645  1.0000
  H   H1789     1.0  0.6370597663987497  0.5061054311461921  0.6293982304687714  1.0000
  H   H1790     1.0  0.6165415508668062  0.49687785156332825  0.7022697776747574  1.0000
  H   H1791     1.0  0.6006150975354926  0.4648210662348157  0.6900091340517777  1.0000
  H   H1792     1.0  0.6217476959326473  0.47577686121145757  0.6170410692014083  1.0000
  H   H1793     1.0  0.6175098697631454  0.5354692185518305  0.7155010404658776  1.0000
  H   H1794     1.0  0.5956524554914607  0.5623419724128309  0.7190859815429728  1.0000
  H   H1795     1.0  0.6013476080189938  0.5745323043146287  0.6425953855208991  1.0000
  H   H1796     1.0  0.6246708237056712  0.5450551905759387  0.6388264803622163  1.0000
  H   H1797     1.0  0.6612133331423877  0.4881211922309703  0.696785325814404  1.0000
  H   H1798     1.0  0.6734731473131261  0.48391084604441037  0.7361743216265546  1.0000
  H   H1799     1.0  0.6631818549490743  0.5484352949079658  0.7511635843689425  1.0000
  H   H1800     1.0  0.6553854423686856  0.5531787411723034  0.7101181861259279  1.0000
  H   H1801     1.0  0.6208251551778817  0.4557770379218651  0.7742425496734595  1.0000
  H   H1802     1.0  0.6553670565436087  0.4690163363123842  0.7743550326424777  1.0000
  H   H1803     1.0  0.6328688502427389  0.5305148636574969  0.7762291440456351  1.0000
  H   H1804     1.0  0.5977690128543053  0.517740239344997  0.7769893112072256  1.0000
  H   H1805     1.0  0.7003642174545603  0.5414349654473759  0.775806425791099  1.0000
  H   H1806     1.0  0.7068626405216131  0.5684818121791242  0.8036114900358146  1.0000
  H   H1807     1.0  0.6539505895322106  0.5509869225594334  0.845538609616617  1.0000
  H   H1808     1.0  0.6491253417812426  0.5235329435812199  0.8191232543117064  1.0000
  H   H1809     1.0  0.674211227632804  0.484857617209042  0.8136787157629402  1.0000
  H   H1810     1.0  0.7038796694260793  0.4636048784226485  0.8254223005767235  1.0000
  H   H1811     1.0  0.7367655320538378  0.4874668779804348  0.7650788161813509  1.0000
  H   H1812     1.0  0.7080101201666377  0.5087363299849165  0.7549553489697162  1.0000
  C   C2437     1.0  0.686563573762154  0.5573869301382635  0.8862665156083708  1.0000
  C   C2438     1.0  0.6774279253969043  0.5692281830289044  0.9039372271928369  1.0000
  C   C2439     1.0  0.6643456784639217  0.5604323311502089  0.920054948108278  1.0000
  C   C2440     1.0  0.6577868508793523  0.540209073921264  0.9171539760524711  1.0000
  C   C2441     1.0  0.667008876288651  0.5287326391201297  0.8992111282526383  1.0000
  C   C2442     1.0  0.6815537427597782  0.5371653795487553  0.8843143918234748  1.0000
  H   H1813     1.0  0.6801818318735499  0.5857748670141275  0.9047119082859136  1.0000
  H   H1814     1.0  0.658467905959902  0.5701551854277611  0.934646891976231  1.0000
  H   H1815     1.0  0.6629532800245149  0.5128450113533738  0.8963954255443126  1.0000
  H   H1816     1.0  0.6879864289365939  0.5280456674337273  0.8696389928494762  1.0000
  C   C2443     1.0  0.6208058607933851  0.5099099317491124  0.9028178402269625  1.0000
  C   C2444     1.0  0.6268716406444277  0.5120604870070804  0.9269472513227943  1.0000
  C   C2445     1.0  0.6201607410754887  0.4968488855491573  0.9428073499543552  1.0000
  C   C2446     1.0  0.6098697454421919  0.479466295708233  0.9346251210790018  1.0000
  C   C2447     1.0  0.6058300814141742  0.47634830638341097  0.9106571774709542  1.0000
  C   C2448     1.0  0.6104396087698633  0.4924860089519525  0.8951254565392689  1.0000
  C   C2449     1.0  0.6417949262446788  0.530258528869301  0.9357172944233394  1.0000
  C   C2450     1.0  0.6248285858290447  0.5463568995227792  0.9454053436903875  1.0000
  C   C2451     1.0  0.6167224124933988  0.5456874011137106  0.9686566619313032  1.0000
  C   C2452     1.0  0.6037810394260955  0.5608162619832835  0.9769441168099318  1.0000
  C   C2453     1.0  0.5991267199086322  0.5772007944443519  0.962480984083919  1.0000
  C   C2454     1.0  0.6058905232205901  0.5770277879899336  0.938694464619449  1.0000
  C   C2455     1.0  0.6169764560965519  0.5611264196309138  0.9300369044879222  1.0000
  C   C2456     1.0  0.6674604955523455  0.503819006465426  0.951450396154396  1.0000
  C   C2457     1.0  0.6801918205730844  0.49620063871587305  0.9687256031058628  1.0000
  C   C2458     1.0  0.6843261312852585  0.5069513259359816  0.9903168904330426  1.0000
  C   C2459     1.0  0.6763257384634501  0.5264913246944002  0.9922508718035807  1.0000
  C   C2460     1.0  0.6638759359031412  0.5345189004074697  0.9751480177885128  1.0000
  C   C2461     1.0  0.6582880981377436  0.5227184461878889  0.955425399140183  1.0000
  C   C2462     1.0  0.6942172402569436  0.4955288934048213  0.5125355193429142  1.0000
  C   C2463     1.0  0.6361513662290329  0.4604908569074403  0.519810972206252  1.0000
  C   C2464     1.0  0.6529872856371085  0.4513258687444848  0.5105927389014127  1.0000
  C   C2465     1.0  0.6719727358501814  0.46112700210042334  0.510178456869553  1.0000
  C   C2466     1.0  0.674419735053398  0.48131693075677806  0.5185074397346464  1.0000
  C   C2467     1.0  0.6571667569293288  0.4901077380357679  0.5295106326184893  1.0000
  C   C2468     1.0  0.6386697887108571  0.4801848990659707  0.5291107738060441  1.0000
  C   C2469     1.0  0.7021094796670174  0.5092317559212178  0.5346202621982111  1.0000
  C   C2470     1.0  0.7117874563817609  0.5283272452741075  0.5315948331799096  1.0000
  C   C2471     1.0  0.7180872902049454  0.5398852526466078  0.5512838883616776  1.0000
  C   C2472     1.0  0.7151245986065765  0.5331911620042394  0.5746008821425684  1.0000
  C   C2473     1.0  0.707311955879434  0.5133884713365767  0.5774162220026069  1.0000
  C   C2474     1.0  0.7004507106685217  0.5018965437976339  0.5581800014832089  1.0000
  C   C2475     1.0  0.7208412146728888  0.4669183506574914  0.5197899270055971  1.0000
  C   C2476     1.0  0.739049195636097  0.45783938807977376  0.5152308471319761  1.0000
  C   C2477     1.0  0.7517334684577086  0.4642325693157502  0.9973761038596503  1.0000
  C   C2478     1.0  0.7463078446028851  0.48135652031931675  0.9841647977243235  1.0000
  C   C2479     1.0  0.7280328711774126  0.49132561903949656  0.9888963393888294  1.0000
  C   C2480     1.0  0.7147068066247565  0.4836524686013916  0.5058877214466978  1.0000
  H   H1817     1.0  0.6241396455340855  0.5211519241310201  0.8886812709593896  1.0000
  H   H1818     1.0  0.6232812868636683  0.4976665908901535  0.962058265829383  1.0000
  H   H1819     1.0  0.604467081606908  0.46873779334633797  0.9478400556972001  1.0000
  H   H1820     1.0  0.6062720967651475  0.491580728724335  0.8758963115614704  1.0000
  H   H1821     1.0  0.6204499370091459  0.5339379340000342  0.9814797203993738  1.0000
  H   H1822     1.0  0.5979758010006663  0.5600362686219192  0.9955509769752587  1.0000
  H   H1823     1.0  0.6019104357397445  0.5904090050817703  0.9281646073262005  1.0000
  H   H1824     1.0  0.6213355631916261  0.5608286897878252  0.9111760505215862  1.0000
  H   H1825     1.0  0.6642378813510782  0.49497762704729126  0.9355540126941194  1.0000
  H   H1826     1.0  0.6853968043965234  0.4805693777020461  0.9662981480647934  1.0000
  H   H1827     1.0  0.6776920657389024  0.5351909661773973  0.5091026298405518  1.0000
  H   H1828     1.0  0.6570803957455814  0.54944628779809  0.9779691632211457  1.0000
  H   H1829     1.0  0.6517475088323953  0.43553154895169  0.5032615030773103  1.0000
  H   H1830     1.0  0.6840134187002018  0.45238920264288673  0.5009628591781811  1.0000
  H   H1831     1.0  0.6578571732670434  0.5056334748197425  0.5371511290011198  1.0000
  H   H1832     1.0  0.6254767076167241  0.4878744583764561  0.5363182107579547  1.0000
  H   H1833     1.0  0.7146768084810818  0.5343924311786583  0.5134274730023995  1.0000
  H   H1834     1.0  0.7237465195812898  0.5552255340500171  0.5473009027135731  1.0000
  H   H1835     1.0  0.7049245236414727  0.5074991386327582  0.5957104883685496  1.0000
  H   H1836     1.0  0.6938885959735493  0.4872051720186007  0.5620434286206956  1.0000
  H   H1837     1.0  0.7115817313461785  0.4609432199573687  0.534261586666358  1.0000
  H   H1838     1.0  0.7431725155794869  0.4456840287710781  0.5267288562250126  1.0000
  H   H1839     1.0  0.7560639918694387  0.4873548120918128  0.9701642965644338  1.0000
  H   H1840     1.0  0.7250570788656718  0.5050773745716353  0.9795820238575513  1.0000
  C   C2481     1.0  0.4511757269710894  0.5080621064638904  0.5930448234269627  1.0000
  C   C2482     1.0  0.4319017369931474  0.5013412773405712  0.5994677823820433  1.0000
  C   C2483     1.0  0.41834006134981044  0.5139399664783579  0.6114486699756263  1.0000
  C   C2484     1.0  0.4247330877723346  0.5331430123660165  0.6202179873795972  1.0000
  C   C2485     1.0  0.4440688485807997  0.5398621558417259  0.6130818501161126  1.0000
  C   C2486     1.0  0.4570109088048943  0.5273293170720899  0.600483031889504  1.0000
  H   H1841     1.0  0.42642399709451667  0.48636234010655566  0.5929666296210808  1.0000
  H   H1842     1.0  0.40289055677319624  0.5094496599492031  0.615068081640001  1.0000
  H   H1843     1.0  0.4490673748813164  0.5553056790958741  0.6181082060139323  1.0000
  H   H1844     1.0  0.4712156433983228  0.5337029720904367  0.5954378078807524  1.0000
  C   C2487     1.0  0.43489188709158794  0.5686812049773594  0.660398536730177  1.0000
  C   C2488     1.0  0.4167019859878072  0.5680667182419329  0.6474486627857458  1.0000
  C   C2489     1.0  0.40537409329342855  0.5862248648478472  0.6473376312098762  1.0000
  C   C2490     1.0  0.4134759400984967  0.6048762435067913  0.6558854297345387  1.0000
  C   C2491     1.0  0.43349162014870984  0.6056037843014804  0.6638428740959993  1.0000
  C   C2492     1.0  0.44384551973323644  0.5875137616707787  0.6662004808417913  1.0000
  C   C2493     1.0  0.40815734215447963  0.5474814313335339  0.6341470074269172  1.0000
  C   C2494     1.0  0.39718390653116215  0.5367177684533971  0.6556938458389207  1.0000
  C   C2495     1.0  0.3784069423877918  0.5427101079163444  0.6653512344257042  1.0000
  C   C2496     1.0  0.369046689730977  0.5318424551901074  0.6833327255681189  1.0000
  C   C2497     1.0  0.3785630255899267  0.5147369861949475  0.6925635859933514  1.0000
  C   C2498     1.0  0.39750718138533203  0.5096287578772559  0.6847278772322313  1.0000
  C   C2499     1.0  0.4071135856083406  0.5206464790618822  0.6667881136428394  1.0000
  C   C2500     1.0  0.40336030780246623  0.5653992798490921  0.5946067038790229  1.0000
  C   C2501     1.0  0.3926614041432282  0.5726108336708747  0.5752342338277981  1.0000
  C   C2502     1.0  0.37146277865041355  0.5706043519839865  0.573513788674251  1.0000
  C   C2503     1.0  0.36227619398041033  0.558189515455615  0.5902392804706774  1.0000
  C   C2504     1.0  0.37314947176161156  0.5494778993248334  0.6087735709785733  1.0000
  C   C2505     1.0  0.3938457793076342  0.55368866297793  0.6122521975075319  1.0000
  C   C2506     1.0  0.35967488572129097  0.5800903963726324  0.5512820741202419  1.0000
  C   C2507     1.0  0.3973375756376004  0.629393313761098  0.5212199121052764  1.0000
  C   C2508     1.0  0.3864584327293591  0.6168336258400153  0.5056327166338707  1.0000
  C   C2509     1.0  0.37245966380873896  0.6030854281239992  0.514528409132872  1.0000
  C   C2510     1.0  0.37030112868692466  0.6000909429093376  0.5394967617534356  1.0000
  C   C2511     1.0  0.37898037272095364  0.6150280757572889  0.5544105520520953  1.0000
  C   C2512     1.0  0.39279187544761185  0.6293550617823654  0.545468337439295  1.0000
  C   C2513     1.0  0.33790731971525695  0.5897851337859903  0.5563657600474321  1.0000
  C   C2514     1.0  0.3317481277518827  0.5978633233166362  0.5785684467384687  1.0000
  C   C2515     1.0  0.31168671784267915  0.6045065041877321  0.5822840131989396  1.0000
  C   C2516     1.0  0.29852307903924763  0.6051115096622542  0.5629137202374378  1.0000
  C   C2517     1.0  0.3054169799581023  0.5992906013187731  0.5401732923848368  1.0000
  C   C2518     1.0  0.32495644415946573  0.591790464026068  0.5371660057808931  1.0000
  C   C2519     1.0  0.34291759802834065  0.5461491390409259  0.5340418820284855  1.0000
  C   C2520     1.0  0.34290880087321834  0.5288125317355659  0.5192857493105948  1.0000
  C   C2521     1.0  0.3590312374668346  0.5248635225789493  0.5041849519681207  1.0000
  C   C2522     1.0  0.37610644201538457  0.5371231505114296  0.5047001965358813  1.0000
  C   C2523     1.0  0.3762862253097722  0.5540020223727274  0.5198262118343127  1.0000
  C   C2524     1.0  0.3595215201781711  0.5597922238027306  0.5339150665521246  1.0000
  H   H1845     1.0  0.44387821967297375  0.5547365238635826  0.6633740741089945  1.0000
  H   H1846     1.0  0.3896112259949801  0.5854047902580655  0.6416002740933755  1.0000
  H   H1847     1.0  0.4050595400219192  0.6186665949641222  0.6551194570003537  1.0000
  H   H1848     1.0  0.459670759759537  0.5879657215419372  0.6716085531376984  1.0000
  H   H1849     1.0  0.37084849088888805  0.5555303464562134  0.657052894098461  1.0000
  H   H1850     1.0  0.354484983526536  0.5363399074073112  0.6905552207239464  1.0000
  H   H1851     1.0  0.40566225672492234  0.4974156874148391  0.6933654807079648  1.0000
  H   H1852     1.0  0.4226944352186087  0.5167594282251421  0.6621400270843792  1.0000
  H   H1853     1.0  0.4197031754666888  0.5695627789945248  0.5953158908562681  1.0000
  H   H1854     1.0  0.4010467117793021  0.5811776466655253  0.5618565617528106  1.0000
  H   H1855     1.0  0.3458678599124286  0.555199766721802  0.5888825907250036  1.0000
  H   H1856     1.0  0.3653532531490868  0.5389515949748452  0.6207216208021689  1.0000
  H   H1857     1.0  0.38862432171211947  0.6176358337261041  0.9864888410035536  1.0000
  H   H1858     1.0  0.3649882991686407  0.5923860460979113  0.502085874626927  1.0000
  H   H1859     1.0  0.37652861858701886  0.6144006441256233  0.5738336394393785  1.0000
  H   H1860     1.0  0.4014477316374941  0.639392339840204  0.5577173699170858  1.0000
  H   H1861     1.0  0.3416440675725712  0.5972714433667161  0.594370852492372  1.0000
  H   H1862     1.0  0.3065388829913045  0.6085608489294324  0.6002196040330293  1.0000
  H   H1863     1.0  0.2947693037838891  0.5999999702393757  0.5250989417191108  1.0000
  H   H1864     1.0  0.32940551331603846  0.5873864300656786  0.5188956874019027  1.0000
  H   H1865     1.0  0.32907747277539695  0.5487476116882962  0.5445463399416333  1.0000
  H   H1866     1.0  0.3300498138264704  0.5184432271693286  0.5199809666287845  1.0000
  H   H1867     1.0  0.38946995452262484  0.5337134449630145  0.9931090080027033  1.0000
  H   H1868     1.0  0.39002332636698733  0.5632634484814296  0.5202155480464303  1.0000
  C   C2525     1.0  0.4184587332341725  0.4860136764320741  0.836734095928792  1.0000
  C   C2526     1.0  0.3994235199615454  0.4849319738608999  0.8475306467130997  1.0000
  C   C2527     1.0  0.3924890321877116  0.5011174805854507  0.8611429002057333  1.0000
  C   C2528     1.0  0.40458925676163837  0.5182252599217289  0.8663661012993348  1.0000
  C   C2529     1.0  0.4234859870472386  0.5190668107706481  0.8551250613632616  1.0000
  C   C2530     1.0  0.43056316701386255  0.5031717643279444  0.840627458049969  1.0000
  H   H1869     1.0  0.38977091759041294  0.47152539458059706  0.8445480337926826  1.0000
  H   H1870     1.0  0.37710951439633755  0.5001476666310625  0.8676777978574014  1.0000
  H   H1871     1.0  0.4336918562743426  0.5319564963909028  0.858185686665417  1.0000
  H   H1872     1.0  0.4453572259341852  0.504569503092608  0.8321749072006849  1.0000
  C   C2531     1.0  0.43194759170571473  0.5434639936192487  0.905756911352921  1.0000
  C   C2532     1.0  0.41345204276329867  0.5512300681914395  0.8974730849571642  1.0000
  C   C2533     1.0  0.41047146471855644  0.5720229495663911  0.9006715926084387  1.0000
  C   C2534     1.0  0.42587172898786185  0.5850457737332346  0.9083403911574672  1.0000
  C   C2535     1.0  0.4451086374742318  0.5770234931063012  0.9137903724305408  1.0000
  C   C2536     1.0  0.4476409068697701  0.555978623150877  0.9134619947306651  1.0000
  C   C2537     1.0  0.39641279604693175  0.5374136131504139  0.8827976859831653  1.0000
  C   C2538     1.0  0.3836274009283554  0.5299728221227905  0.904895146670927  1.0000
  C   C2539     1.0  0.367694398099711  0.5416827723232212  0.9144688987275214  1.0000
  C   C2540     1.0  0.35603374660385556  0.5341722183541066  0.9330249601326466  1.0000
  C   C2541     1.0  0.36115946239803226  0.5156113260176642  0.9427003097096442  1.0000
  C   C2542     1.0  0.3779107866684537  0.5049592591478899  0.9353852882405922  1.0000
  C   C2543     1.0  0.3892342242102706  0.5122021550758521  0.9161688429528442  1.0000
  C   C2544     1.0  0.39912839154072904  0.5606351371298203  0.8463876746085605  1.0000
  C   C2545     1.0  0.3931475337207682  0.5681486245493197  0.8251283934641277  1.0000
  C   C2546     1.0  0.37272624183279496  0.5676316268066999  0.8181762202822309  1.0000
  C   C2547     1.0  0.3589839538090574  0.5573929367519533  0.8334702755858295  1.0000
  C   C2548     1.0  0.36560627998078515  0.5490674253583319  0.8547531418689273  1.0000
  C   C2549     1.0  0.3859185192050244  0.5503019657409874  0.8616472593248793  1.0000
  C   C2550     1.0  0.36747149789393774  0.5760583100153918  0.7919350321551551  1.0000
  C   C2551     1.0  0.40939285641533585  0.6262654145858153  0.7738797013863041  1.0000
  C   C2552     1.0  0.4022096289817742  0.6130766879124316  0.7559549960008292  1.0000
  C   C2553     1.0  0.3875820558129172  0.5984714896191461  0.7613287791336001  1.0000
  C   C2554     1.0  0.38062838487184525  0.5959960182027104  0.7847415648623  1.0000
  C   C2555     1.0  0.386051719608257  0.6107034391198137  0.8019931866751018  1.0000
  C   C2556     1.0  0.400904510832538  0.6250742086063714  0.7964924066418264  1.0000
  C   C2557     1.0  0.34536721184530145  0.5850044405694048  0.7889832613391462  1.0000
  C   C2558     1.0  0.33573020018473915  0.5965762285861708  0.8071438181112721  1.0000
  C   C2559     1.0  0.31609659287837394  0.6030961219862039  0.8039561959086122  1.0000
  C   C2560     1.0  0.30603829971463087  0.5996926408326926  0.781953075775511  1.0000
  C   C2561     1.0  0.31594914069141256  0.5896467041396567  0.7633117450229042  1.0000
  C   C2562     1.0  0.3358718980646489  0.5833970158205134  0.7662998006676286  1.0000
  C   C2563     1.0  0.3560852544727456  0.5403732814013062  0.7739613422509141  1.0000
  C   C2564     1.0  0.3591907181037973  0.5226096214236893  0.7611890825430453  1.0000
  C   C2565     1.0  0.37791324815005134  0.5184538119812551  0.7509984883982869  1.0000
  C   C2566     1.0  0.39345001215516634  0.5328272757619895  0.753777906277897  1.0000
  C   C2567     1.0  0.39017426812709316  0.5506983941848382  0.7663995839465965  1.0000
  C   C2568     1.0  0.37135761217815333  0.5553953773773125  0.776717174991859  1.0000
  H   H1873     1.0  0.43426951601634095  0.5268046300513053  0.9048534191179042  1.0000
  H   H1874     1.0  0.3966346037913237  0.5788469311450184  0.893888143880069  1.0000
  H   H1875     1.0  0.42369947635830474  0.6016318679616331  0.9081281249094814  1.0000
  H   H1876     1.0  0.46238368764565824  0.5492668514782658  0.916593375448816  1.0000
  H   H1877     1.0  0.36400996114409195  0.5563352710726016  0.9063664964753421  1.0000
  H   H1878     1.0  0.3420943541159551  0.5424705101363713  0.9388178330370819  1.0000
  H   H1879     1.0  0.3827811442518106  0.49062994557201106  0.9442678143101555  1.0000
  H   H1880     1.0  0.4017617835319785  0.5030828805361953  0.9090171032130119  1.0000
  H   H1881     1.0  0.4155600022979384  0.5602374384727931  0.8506003432224342  1.0000
  H   H1882     1.0  0.40505958801927505  0.5741066189158474  0.8134519355834681  1.0000
  H   H1883     1.0  0.34283951572367  0.5560484976387742  0.8279459104138891  1.0000
  H   H1884     1.0  0.3552348926679519  0.5394091841387888  0.8654317669599096  1.0000
  H   H1885     1.0  0.40845832725839915  0.6145085625662732  0.737805324677318  1.0000
  H   H1886     1.0  0.38274324859929415  0.5888877348268827  0.7466479374352941  1.0000
  H   H1887     1.0  0.38025452590590253  0.6096873921466461  0.8203496815222915  1.0000
  H   H1888     1.0  0.4063152120268203  0.6353491471539493  0.8107523443270322  1.0000
  H   H1889     1.0  0.3426651901102385  0.5985049387709459  0.8250794089453617  1.0000
  H   H1890     1.0  0.3082569678754644  0.6103011479470645  0.8189654153067938  1.0000
  H   H1891     1.0  0.3085723086915918  0.5868134103338404  0.7463304451840332  1.0000
  H   H1892     1.0  0.34341413538088716  0.5756999258560194  0.7516153304864511  1.0000
  H   H1893     1.0  0.3409873838808271  0.5428239744104267  0.7814378312077505  1.0000
  H   H1894     1.0  0.3470772052913926  0.5116397423888582  0.7604071444842254  1.0000
  H   H1895     1.0  0.4084657393521857  0.5306903307463082  0.7458968414808825  1.0000
  H   H1896     1.0  0.4031860032168155  0.5605198998037895  0.7702240048932139  1.0000
  C   C2569     1.0  0.5605953610451003  0.7039505311825233  0.7806704070804167  1.0000
  C   C2570     1.0  0.569822619457916  0.6919276638572592  0.7631375778450695  1.0000
  C   C2571     1.0  0.5581879483807359  0.6801456381081482  0.7475060736344166  1.0000
  C   C2572     1.0  0.5371108857496377  0.6785235316376931  0.7503925317587375  1.0000
  C   C2573     1.0  0.528560063794707  0.6913477290036631  0.7676749956759474  1.0000
  C   C2574     1.0  0.5396857696387858  0.7037381800965261  0.7824538064117854  1.0000
  H   H1897     1.0  0.5862903535307475  0.6918162435926241  0.7608806614989633  1.0000
  H   H1898     1.0  0.5655394394208295  0.6710856935751818  0.7336234981678523  1.0000
  H   H1899     1.0  0.5120399087938148  0.6914463755142599  0.7700153671280995  1.0000
  H   H1900     1.0  0.5315589897163118  0.7127447123896342  0.796260183738047  1.0000
  C   C2575     1.0  0.5013386356945927  0.6495872545688346  0.7686111442568083  1.0000
  C   C2576     1.0  0.5035117355674725  0.6541823407445772  0.7440390582506471  1.0000
  C   C2577     1.0  0.48731238964960233  0.6494683281742476  0.7291513930286624  1.0000
  C   C2578     1.0  0.4699610643491958  0.6403848178967021  0.7380575042368909  1.0000
  C   C2579     1.0  0.4680053217384893  0.6359550126798392  0.7620708038808328  1.0000
  C   C2580     1.0  0.484214446668481  0.6404434128874502  0.7777349644373298  1.0000
  C   C2581     1.0  0.5239173451171795  0.6643193353638084  0.7327272628985785  1.0000
  C   C2582     1.0  0.5343450640846098  0.6438329657397989  0.7214354242023037  1.0000
  C   C2583     1.0  0.5310344410179341  0.6361284143332927  0.6982258335144108  1.0000
  C   C2584     1.0  0.54098295935593  0.6185165217593065  0.6899547068087043  1.0000
  C   C2585     1.0  0.5534649712307842  0.6076196885948634  0.7050183534499592  1.0000
  C   C2586     1.0  0.5558218090023845  0.6141413038928136  0.7285291082161911  1.0000
  C   C2587     1.0  0.5461071908044562  0.6318792593619351  0.7367748355417967  1.0000
  C   C2588     1.0  0.5030446709580059  0.6945973937552349  0.716905263337169  1.0000
  C   C2589     1.0  0.49644529292111594  0.706750656135597  0.6986939078048413  1.0000
  C   C2590     1.0  0.5060924701034057  0.7063115600307817  0.6761216601333369  1.0000
  C   C2591     1.0  0.523587059282676  0.694789905568103  0.6732373790987388  1.0000
  C   C2592     1.0  0.531039349143292  0.6834622515231269  0.6922225086034254  1.0000
  C   C2593     1.0  0.5195409961920637  0.6813245738647167  0.7133112510528951  1.0000
  C   C2594     1.0  0.4938650432881056  0.7150147710482865  0.65437434804268  1.0000
  C   C2595     1.0  0.456287388014963  0.6587725028695621  0.6468806237922039  1.0000
  C   C2596     1.0  0.4490491619269953  0.6751486509169496  0.6601040853451504  1.0000
  C   C2597     1.0  0.46007348206797843  0.6933191017495278  0.661512480971744  1.0000
  C   C2598     1.0  0.4789152586208756  0.6956319965588927  0.6499824323749517  1.0000
  C   C2599     1.0  0.4863900310502877  0.6783297995363244  0.6377219701761155  1.0000
  C   C2600     1.0  0.47496627514536977  0.6605378744725755  0.6350925900632441  1.0000
  C   C2601     1.0  0.5055305724171015  0.7215102003698317  0.630252012488448  1.0000
  C   C2602     1.0  0.5251352496476955  0.7293212586353939  0.6317037684853566  1.0000
  C   C2603     1.0  0.5352939267202604  0.735127930731517  0.6108784538923616  1.0000
  C   C2604     1.0  0.5262472519065058  0.7329027754709759  0.5886922767983905  1.0000
  C   C2605     1.0  0.5062174116661637  0.7268918409956685  0.5876882755878318  1.0000
  C   C2606     1.0  0.49558025666490396  0.7208303247196116  0.6080068725478142  1.0000
  C   C2607     1.0  0.4646397463022169  0.7424932356293125  0.6537404520850197  1.0000
  C   C2608     1.0  0.4543447910967503  0.7591043171768223  0.6636180895821067  1.0000
  C   C2609     1.0  0.464064954262388  0.7721187007689221  0.6798920166851682  1.0000
  C   C2610     1.0  0.48424845458889565  0.7682883362315187  0.6862191836924398  1.0000
  C   C2611     1.0  0.49380352329845123  0.7513769210654341  0.6765942700273566  1.0000
  C   C2612     1.0  0.4840316945556625  0.7371835086593254  0.6617374469097803  1.0000
  H   H1901     1.0  0.5130298232168672  0.6528329689318072  0.7810931253349529  1.0000
  H   H1902     1.0  0.4872788925517389  0.6538021715358522  0.7100238455712675  1.0000
  H   H1903     1.0  0.4577310730107355  0.6368223809698231  0.7256372073675628  1.0000
  H   H1904     1.0  0.4830167474409545  0.6381588848995575  0.7970366790725595  1.0000
  H   H1905     1.0  0.5214813013871993  0.6441543066810286  0.6859107626483577  1.0000
  H   H1906     1.0  0.5377703283153725  0.6128889559576143  0.6719461834688966  1.0000
  H   H1907     1.0  0.565512392780743  0.605596188457754  0.7406282843513866  1.0000
  H   H1908     1.0  0.547998590344699  0.6365373415691817  0.7556084758865957  1.0000
  H   H1909     1.0  0.4940070285731638  0.6937529638054748  0.7333114486408987  1.0000
  H   H1910     1.0  0.48270076538982126  0.7156591338447909  0.7017781182456618  1.0000
  H   H1911     1.0  0.531826896156469  0.6930384632890605  0.656004262548582  1.0000
  H   H1912     1.0  0.5445049052821136  0.6743876214864539  0.6892798089945954  1.0000
  H   H1913     1.0  0.4341937065351042  0.6740455961579103  0.6683430999774438  1.0000
  H   H1914     1.0  0.453194780358022  0.7050777608680421  0.6723268113221225  1.0000
  H   H1915     1.0  0.5015292967547315  0.6778897784989912  0.6293581357330408  1.0000
  H   H1916     1.0  0.4811201634268572  0.6478701738461584  0.6245429575383454  1.0000
  H   H1917     1.0  0.5326262180772843  0.730728144681198  0.6487578194058022  1.0000
  H   H1918     1.0  0.5504254090164001  0.7418793432879337  0.612746578298781  1.0000
  H   H1919     1.0  0.4990279119329658  0.724758121478446  0.5703379590409237  1.0000
  H   H1920     1.0  0.4799737516610944  0.7153506452586513  0.6064937951903763  1.0000
  H   H1921     1.0  0.45688715217114073  0.7327850842988574  0.6409671038322894  1.0000
  H   H1922     1.0  0.4383390082954616  0.7610104075771207  0.6598226964984615  1.0000
  H   H1923     1.0  0.49152774099261054  0.778152466417643  0.6999511771198346  1.0000
  H   H1924     1.0  0.509658038261097  0.7499504571345839  0.6815783540997228  1.0000
  C   C2613     1.0  0.5257697038641294  0.7207221092344184  0.5272266840749898  1.0000
  C   C2614     1.0  0.5416657345991082  0.7081601013405926  0.5207228099518736  1.0000
  C   C2615     1.0  0.537811048957623  0.6896447896277343  0.5095150976309756  1.0000
  C   C2616     1.0  0.5178543913341529  0.6832254424712884  0.5039382151328551  1.0000
  C   C2617     1.0  0.5019357671436679  0.6964402404759005  0.51086471183505  1.0000
  C   C2618     1.0  0.5059610885704925  0.715028526441524  0.521527244604497  1.0000
  H   H1925     1.0  0.55763015568801  0.7129217620599922  0.5247155925037311  1.0000
  H   H1926     1.0  0.5509063472949629  0.6801776493454726  0.5039091872698827  1.0000
  H   H1927     1.0  0.4862900844200445  0.6930689119824185  0.5070895525067994  1.0000
  H   H1928     1.0  0.493245678921059  0.7254218310909272  0.5255802599720224  1.0000
  C   C2619     1.0  0.4856611822428736  0.6519899174176454  0.5185852706922413  1.0000
  C   C2620     1.0  0.492566323268454  0.6511932178077195  0.9947127974319299  1.0000
  C   C2621     1.0  0.4812318917835629  0.6401350702502259  0.9778657514593064  1.0000
  C   C2622     1.0  0.46302348417708167  0.6312723243790954  0.9844568905954836  1.0000
  C   C2623     1.0  0.4555616931791097  0.6334482614246327  0.5077045803535277  1.0000
  C   C2624     1.0  0.4675849557767018  0.6426559160632068  0.5253255404744394  1.0000
  C   C2625     1.0  0.5134509527453104  0.6627870703385207  0.9880980731570876  1.0000
  C   C2626     1.0  0.5287870481126791  0.6444959429428656  0.9912203826680596  1.0000
  C   C2627     1.0  0.530442334167197  0.630058956922684  0.9724992252922786  1.0000
  C   C2628     1.0  0.5438915107100901  0.6143773608903409  0.9725699807082738  1.0000
  C   C2629     1.0  0.5560516783366658  0.6116902426043037  0.9926699615752451  1.0000
  C   C2630     1.0  0.5540292219039503  0.6248878640590424  0.5124538784783044  1.0000
  C   C2631     1.0  0.5399247532754234  0.6404480045971264  0.5119390874709027  1.0000
  C   C2632     1.0  0.4960435784013629  0.6805048096133731  0.9519728976878997  1.0000
  C   C2633     1.0  0.49541748210238945  0.6861539474360604  0.9278471150749396  1.0000
  C   C2634     1.0  0.5120552517799343  0.683717227614252  0.9127707687436342  1.0000
  C   C2635     1.0  0.5302819478735534  0.6783797495657222  0.9242785021707665  1.0000
  C   C2636     1.0  0.5310871443744524  0.6735775634910198  0.9481067491882592  1.0000
  C   C2637     1.0  0.5134772894843698  0.6726453497622639  0.961709931473714  1.0000
  C   C2638     1.0  0.5082038174339057  0.6815592011682919  0.8845629429001762  1.0000
  C   C2639     1.0  0.48315359385400936  0.6186652746375746  0.8922553265878699  1.0000
  C   C2640     1.0  0.47021507549889663  0.6349725797218376  0.8888989799316829  1.0000
  C   C2641     1.0  0.47819017884975307  0.6547771308964997  0.8855226766197022  1.0000
  C   C2642     1.0  0.49903702123522137  0.6582824095390792  0.8842400079246079  1.0000
  C   C2643     1.0  0.5115174889511425  0.6412502857767542  0.8872189923621535  1.0000
  C   C2644     1.0  0.5038536341259053  0.621869781371968  0.891660255396935  1.0000
  C   C2645     1.0  0.5287821519688592  0.6851980066283743  0.8688407266177344  1.0000
  C   C2646     1.0  0.5415351766838524  0.7019823730269048  0.8736176243181346  1.0000
  C   C2647     1.0  0.5574256697733917  0.7067469600933862  0.8585213213310358  1.0000
  C   C2648     1.0  0.561291781506892  0.6946854197614256  0.8381691609044916  1.0000
  C   C2649     1.0  0.5495007110062413  0.6771042993164863  0.833873037184572  1.0000
  C   C2650     1.0  0.532686577391054  0.6732090457820603  0.848147488801264  1.0000
  C   C2651     1.0  0.4849429665406166  0.6964959166568491  0.8511083308244518  1.0000
  C   C2652     1.0  0.4768783484559562  0.7127595666459926  0.8391706221770403  1.0000
  C   C2653     1.0  0.47602870471727254  0.7317833568746017  0.8502465661424577  1.0000
  C   C2654     1.0  0.48525392993821526  0.734971646097965  0.872647005149994  1.0000
  C   C2655     1.0  0.49457541811899397  0.7188926949460357  0.8837447200126409  1.0000
  C   C2656     1.0  0.49458938110269196  0.6991033727932894  0.8735305407292174  1.0000
  H   H1929     1.0  0.49395846040897345  0.659214718562671  0.5327552220022326  1.0000
  H   H1930     1.0  0.485957584272293  0.6372533743978803  0.9591990213265987  1.0000
  H   H1931     1.0  0.4545396689261906  0.6232283029233369  0.9705833863360982  1.0000
  H   H1932     1.0  0.46342980245455784  0.6441179385648207  0.5441082006348932  1.0000
  H   H1933     1.0  0.520582239533262  0.6310116795626204  0.9569421049804924  1.0000
  H   H1934     1.0  0.5450163210534509  0.60409153982054  0.9568985631860337  1.0000
  H   H1935     1.0  0.562609290923673  0.6220912109529857  0.5291526827832105  1.0000
  H   H1936     1.0  0.5386775007422551  0.6507157502344412  0.5275254896394623  1.0000
  H   H1937     1.0  0.4825401869195416  0.6814437437427522  0.9633409345244773  1.0000
  H   H1938     1.0  0.48083790156384565  0.6893056312925465  0.9199642360364894  1.0000
  H   H1939     1.0  0.5440415921871106  0.6773125527366783  0.9134710659378441  1.0000
  H   H1940     1.0  0.5457986205345096  0.668539502562964  0.95554695331638  1.0000
  H   H1941     1.0  0.45373345111945174  0.6329123782352786  0.8889515929333204  1.0000
  H   H1942     1.0  0.4670229901933862  0.6673638682924269  0.8845411720029469  1.0000
  H   H1943     1.0  0.5280963918534483  0.6431639536065447  0.8880952709756337  1.0000
  H   H1944     1.0  0.5150120463399507  0.6097666076954319  0.8943634751362426  1.0000
  H   H1945     1.0  0.537976986230472  0.712154810404732  0.8887556548582564  1.0000
  H   H1946     1.0  0.5659440479420575  0.7199452640427896  0.8627775317393682  1.0000
  H   H1947     1.0  0.5521556038567903  0.6672900374427088  0.8179585113099377  1.0000
  H   H1948     1.0  0.523093404943137  0.6604211847071202  0.8421677490289436  1.0000
  H   H1949     1.0  0.48444782318477175  0.6813236237327436  0.8415128078706281  1.0000
  H   H1950     1.0  0.47031444873468625  0.7099058061821132  0.8212205174114644  1.0000
  H   H1951     1.0  0.4867440771365848  0.7499382493934021  0.8813716922146448  1.0000
  H   H1952     1.0  0.5031782772785428  0.7221993659582745  0.899684645267376  1.0000
  C   C2657     1.0  0.05030605978388548  0.452929793521142  0.727293609798427  1.0000
  C   C2658     1.0  0.0554400167538095  0.43271451028412  0.728041077269967  1.0000
  C   C2659     1.0  0.04034696846729085  0.4178166479080302  0.7312069285753976  1.0000
  C   C2660     1.0  0.01980082458963316  0.4229424889173147  0.7337087675153339  1.0000
  C   C2661     1.0  0.015334583211182416  0.4437675670541018  0.7342022411858652  1.0000
  C   C2662     1.0  0.030350047999982182  0.45849441181337647  0.7320959068789282  1.0000
  H   H1953     1.0  0.07112369997926403  0.42802019851752254  0.7255337956057235  1.0000
  H   H1954     1.0  0.044727958912538966  0.40199728082632924  0.7304141050679631  1.0000
  H   H1955     1.0  0.9995957324055685  0.44894637246894703  0.7339373619362417  1.0000
  H   H1956     1.0  0.02551512200873333  0.47422532300101944  0.731439151479177  1.0000
  C   C2663     1.0  0.975642547977926  0.42469170601397493  0.7597848596717541  1.0000
  C   C2664     1.0  0.9791056451922013  0.4120754052624518  0.7395615103871498  1.0000
  C   C2665     1.0  0.9619175237053723  0.4047054760332709  0.7272464395210968  1.0000
  C   C2666     1.0  0.942621167252338  0.41126831836738525  0.7331717520503439  1.0000
  C   C2667     1.0  0.9400451368618891  0.42599115206440896  0.7511254852987913  1.0000
  C   C2668     1.0  0.9566895250388251  0.4317370531359672  0.7653618378453321  1.0000
  C   C2669     1.0  0.0020807461298268932  0.40556694826892  0.7313284827515947  1.0000
  C   C2670     1.0  0.0045084709022185105  0.386081791489845  0.7477201541238383  1.0000
  C   C2671     1.0  0.9947239897631805  0.36757575654390295  0.741430179066  1.0000
  C   C2672     1.0  0.9967845514625855  0.3507648687021979  0.7559404820693431  1.0000
  C   C2673     1.0  0.008111298028959713  0.352036706165896  0.7773703019087387  1.0000
  C   C2674     1.0  0.017238757225547404  0.37049077421414034  0.7838108590057465  1.0000
  C   C2675     1.0  0.015126983994715596  0.38699201371169617  0.7691971442405642  1.0000
  C   C2676     1.0  0.9946526542859816  0.41522705439126373  0.6875526511477359  1.0000
  C   C2677     1.0  0.9934069312799056  0.4116344455373321  0.6633613744189442  1.0000
  C   C2678     1.0  0.0005507682673056011  0.3929343194731236  0.6536871133868078  1.0000
  C   C2679     1.0  0.011896022269317193  0.380109504912976  0.6683091736625947  1.0000
  C   C2680     1.0  0.013424084032408688  0.3842929664580778  0.6928883352103555  1.0000
  C   C2681     1.0  0.003286089836595397  0.40083525574941936  0.703394607364939  1.0000
  C   C2682     1.0  0.9978027448261816  0.3866838158036739  0.6252470646395706  1.0000
  C   C2683     1.0  0.9542211314242943  0.4266492348869666  0.5891365845260123  1.0000
  C   C2684     1.0  0.972199836270122  0.4213232688135853  0.5776426393337919  1.0000
  C   C2685     1.0  0.9852526788355214  0.4081700376283418  0.5882784483268898  1.0000
  C   C2686     1.0  0.9814569429652886  0.40063226814822567  0.6113222173475528  1.0000
  C   C2687     1.0  0.9620350549968835  0.4044092227702355  0.6213043551513403  1.0000
  C   C2688     1.0  0.9484635807945202  0.41734435751744087  0.6103771789836566  1.0000
  C   C2689     1.0  0.9877396193583974  0.3647846910221989  0.6218528003373756  1.0000
  C   C2690     1.0  0.9770374730977535  0.35495328040018687  0.6405668821715571  1.0000
  C   C2691     1.0  0.9694874344487464  0.33573202523554785  0.6367350228350529  1.0000
  C   C2692     1.0  0.9712954183178603  0.3259101935323219  0.6148619838128968  1.0000
  C   C2693     1.0  0.9798893162607708  0.3359149456501663  0.5957329849623532  1.0000
  C   C2694     1.0  0.9874279376511422  0.3555869384363539  0.598911173109547  1.0000
  C   C2695     1.0  0.03249435307976152  0.37175385881345324  0.6095907053212473  1.0000
  C   C2696     1.0  0.051556571347321604  0.3744707774783484  0.5995949607066914  1.0000
  C   C2697     1.0  0.05887285124736551  0.3937457744863598  0.5948672289492005  1.0000
  C   C2698     1.0  0.048409098360665856  0.41041694576873217  0.6035725036304884  1.0000
  C   C2699     1.0  0.029501004458768756  0.4082644365111932  0.6139379906496557  1.0000
  C   C2700     1.0  0.020595405146429435  0.38887844660695486  0.6155049509777362  1.0000
  H   H1957     1.0  0.9886820731569123  0.43021482552232426  0.7698629708474943  1.0000
  H   H1958     1.0  0.9630698799661173  0.3941560812903605  0.7119269848373974  1.0000
  H   H1959     1.0  0.9299181307922384  0.40489301530883215  0.7225257833052056  1.0000
  H   H1960     1.0  0.9547166291353876  0.4419205062493871  0.7811021965421316  1.0000
  H   H1961     1.0  0.985695365434948  0.36547958846401757  0.7250584643495499  1.0000
  H   H1962     1.0  0.9893092584261638  0.3364547653524564  0.7502473924438754  1.0000
  H   H1963     1.0  0.02546294336929087  0.3723218866680477  0.8006560907369342  1.0000
  H   H1964     1.0  0.02215721996064207  0.4010070579169945  0.775075286492481  1.0000
  H   H1965     1.0  0.9886016152644101  0.4294126199706061  0.6952595487669158  1.0000
  H   H1966     1.0  0.9860780503311213  0.4235999208989616  0.6527778155791966  1.0000
  H   H1967     1.0  0.019091079281419513  0.36730692118147795  0.6596900754495062  1.0000
  H   H1968     1.0  0.021705046384493467  0.3729862192762222  0.7028104216226189  1.0000
  H   H1969     1.0  0.9761373787603315  0.4273737422880276  0.5603478385748186  1.0000
  H   H1970     1.0  0.9988094376844656  0.4037747635904984  0.578163689474147  1.0000
  H   H1971     1.0  0.9576174200698313  0.3979166796366277  0.6392087410327346  1.0000
  H   H1972     1.0  0.9341875397532776  0.42148607041231595  0.6190292963908762  1.0000
  H   H1973     1.0  0.9753552563897226  0.36131988952439753  0.6587453999338972  1.0000
  H   H1974     1.0  0.9622110887197343  0.3283143593838306  0.6516934434730327  1.0000
  H   H1975     1.0  0.9797942927559381  0.32838400913319565  0.578215213930923  1.0000
  H   H1976     1.0  0.9944828757204781  0.3639621077532967  0.5842076533932938  1.0000
  H   H1977     1.0  0.027054519389981897  0.3563601003182327  0.612556264372168  1.0000
  H   H1978     1.0  0.06006487924325911  0.360847833670154  0.5944628345331658  1.0000
  H   H1979     1.0  0.053952628173893014  0.425609166338851  0.5994661495647512  1.0000
  H   H1980     1.0  0.021217494751281412  0.42176695064890196  0.6199913886242686  1.0000
  C   C2701     1.0  0.0808157759363071  0.4529681870953067  0.9557410771500081  1.0000
  C   C2702     1.0  0.07644821767465489  0.43372422981508946  0.9470254612925363  1.0000
  C   C2703     1.0  0.05907083979877979  0.42327502463786687  0.9551133496132294  1.0000
  C   C2704     1.0  0.044558120926311666  0.43299280063013745  0.9696708228939026  1.0000
  C   C2705     1.0  0.049338241762989815  0.45265887027654744  0.978836370627447  1.0000
  C   C2706     1.0  0.06742161512414187  0.46199719008095247  0.9720728785548709  1.0000
  H   H1981     1.0  0.08627543947253363  0.4263269737299263  0.9343910839337864  1.0000
  H   H1982     1.0  0.057110433840021346  0.40749305566486843  0.9500207739030039  1.0000
  H   H1983     1.0  0.03918166582229217  0.46041877007971876  0.9910335158001745  1.0000
  H   H1984     1.0  0.07120421297252474  0.47709117404272516  0.979233689501882  1.0000
  C   C2707     1.0  0.9898474064363274  0.4324913441343816  0.9974885868286685  1.0000
  C   C2708     1.0  0.005041939653839256  0.4366961326973512  0.9805000300240543  1.0000
  C   C2709     1.0  0.0024495605766472464  0.4539151303956201  0.965610550560634  1.0000
  C   C2710     1.0  0.9860582093174456  0.4667908231450833  0.9688961418008258  1.0000
  C   C2711     1.0  0.9709230199589756  0.4618731777684983  0.9851281599267209  1.0000
  C   C2712     1.0  0.9727664383068053  0.44478152309996444  0.9992701719186013  1.0000
  C   C2713     1.0  0.023560590982127812  0.42159422037311217  0.9761313366467038  1.0000
  C   C2714     1.0  0.03063095448196179  0.4104270777237796  0.5008667043820849  1.0000
  C   C2715     1.0  0.039822109373041696  0.39116944978075135  0.9980183453279153  1.0000
  C   C2716     1.0  0.052679217791251017  0.3838416791736307  0.5154854033478299  1.0000
  C   C2717     1.0  0.05752902283458748  0.3961216978604782  0.535572738951994  1.0000
  C   C2718     1.0  0.047148766495542484  0.41441869731556313  0.5388652243096418  1.0000
  C   C2719     1.0  0.033116942391766276  0.4211340520619282  0.5223124482979011  1.0000
  C   C2720     1.0  0.016249340905500897  0.410663930362674  0.9309549106544254  1.0000
  C   C2721     1.0  0.006306911715918462  0.3984941719936493  0.9138556851222286  1.0000
  C   C2722     1.0  0.9928283500399111  0.3830515908069722  0.9206046632633184  1.0000
  C   C2723     1.0  0.9886355462343883  0.3813408709063264  0.9448520000524756  1.0000
  C   C2724     1.0  0.999583986391054  0.392355044942863  0.9621054361067133  1.0000
  C   C2725     1.0  0.013952430106647823  0.40665666760746544  0.9554507985202838  1.0000
  C   C2726     1.0  0.9798418269778264  0.37110945704228177  0.9005409672250627  1.0000
  C   C2727     1.0  0.933683542975781  0.41897796476542515  0.8905426826724966  1.0000
  C   C2728     1.0  0.9510891947247939  0.41883483404422694  0.8762809307458551  1.0000
  C   C2729     1.0  0.965611491971069  0.4038331817508415  0.8795247944330241  1.0000
  C   C2730     1.0  0.9625322832269455  0.3882173057106904  0.8959382367024967  1.0000
  C   C2731     1.0  0.9452682150987228  0.3888497154797544  0.9102489731479044  1.0000
  C   C2732     1.0  0.9305879515273182  0.40357968176527426  0.9068581559044374  1.0000
  C   C2733     1.0  0.9713938682315315  0.34911812032306927  0.9073498153335331  1.0000
  C   C2734     1.0  0.983987987668141  0.33660579897363174  0.9205357220887589  1.0000
  C   C2735     1.0  0.9809987313601558  0.31553440030940827  0.9210019821377535  1.0000
  C   C2736     1.0  0.9659132498467005  0.3068324629952528  0.9067982859370569  1.0000
  C   C2737     1.0  0.9522449015237764  0.31921366398078815  0.8950093450873792  1.0000
  C   C2738     1.0  0.9549711966673597  0.3400438448099952  0.8953050664414108  1.0000
  C   C2739     1.0  0.9826136029584399  0.36325425245471915  0.8551250613632616  1.0000
  C   C2740     1.0  0.9916581566785124  0.3535006392775824  0.8359739287672014  1.0000
  C   C2741     1.0  0.011079572846492526  0.34655091773903174  0.837189470529172  1.0000
  C   C2742     1.0  0.02194357459837211  0.3496185477453419  0.8583870674647883  1.0000
  C   C2743     1.0  0.012746316623146297  0.358359008545684  0.8782076551506499  1.0000
  C   C2744     1.0  0.9927085666251292  0.3651123464740439  0.8771789802565646  1.0000
  H   H1985     1.0  0.9897296428189303  0.4186191594441609  0.5082058321564329  1.0000
  H   H1986     1.0  0.013120056601884533  0.45722593061651773  0.9512000308362588  1.0000
  H   H1987     1.0  0.9851140639979464  0.48083111419422353  0.9591355228763465  1.0000
  H   H1988     1.0  0.9604475495914143  0.44132240224069824  0.511561416831217  1.0000
  H   H1989     1.0  0.03876981303245954  0.3818992193212515  0.9813944510518923  1.0000
  H   H1990     1.0  0.059841545842219984  0.3693478938468786  0.5128162006354433  1.0000
  H   H1991     1.0  0.05053283633169994  0.4248514630222406  0.5536389551694595  1.0000
  H   H1992     1.0  0.02574724649952383  0.435810973201589  0.5247252079833408  1.0000
  H   H1993     1.0  0.025346669988512954  0.42297007998888403  0.9242349603763079  1.0000
  H   H1994     1.0  0.008970448768335082  0.40172945282449873  0.8945303853483342  1.0000
  H   H1995     1.0  0.9771260716784314  0.3710868470426275  0.9506720865784477  1.0000
  H   H1996     1.0  0.9968059453780067  0.38985967581960473  0.9811985129768284  1.0000
  H   H1997     1.0  0.9524478375881801  0.42987206764507274  0.861812355295535  1.0000
  H   H1998     1.0  0.9793942947191904  0.40471859680154043  0.8686883303371291  1.0000
  H   H1999     1.0  0.9444113269005473  0.37786367093299106  0.9250930965754304  1.0000
  H   H2000     1.0  0.9168270093503976  0.4031975020225244  0.9178669729367314  1.0000
  H   H2001     1.0  0.9981558741732248  0.34226395851931174  0.9290463286639881  1.0000
  H   H2002     1.0  0.9920972935899424  0.3054799552093647  0.9299207930360325  1.0000
  H   H2003     1.0  0.9409835208898601  0.3120385982593826  0.883679407320953  1.0000
  H   H2004     1.0  0.9458091927807146  0.3496397480264934  0.8844577168969011  1.0000
  H   H2005     1.0  0.9668560659999539  0.36824236569365604  0.8533725041363012  1.0000
  H   H2006     1.0  0.9828192748835021  0.35180347480226626  0.8197019973297193  1.0000
  H   H2007     1.0  0.03687425119170339  0.34453944172439344  0.8603700333540923  1.0000
  H   H2008     1.0  0.02162209682487695  0.3588106467380147  0.8951780695409063  1.0000
  C   C2745     1.0  0.8332567960687934  0.5291803107503675  0.6248067482431074  1.0000
  C   C2746     1.0  0.8406995917954433  0.5470690116367334  0.6153558203317153  1.0000
  C   C2747     1.0  0.8585174715127891  0.547028309201504  0.6018489742665005  1.0000
  C   C2748     1.0  0.8692842521526772  0.5290162398862771  0.5977193979103853  1.0000
  C   C2749     1.0  0.8609726417800725  0.5106787805057432  0.6065698119065354  1.0000
  C   C2750     1.0  0.8430838868352949  0.51099474719179  0.6199101106079459  1.0000
  H   H2009     1.0  0.8323457405324726  0.5612862414068872  0.616923143508083  1.0000
  H   H2010     1.0  0.8635014392972921  0.5607631119665337  0.5933541515917626  1.0000
  H   H2011     1.0  0.8685279776074963  0.49609632039660057  0.6025514485504332  1.0000
  H   H2012     1.0  0.8376239178804229  0.49649836726091173  0.6261728720442474  1.0000
  C   C2751     1.0  0.9103376351919674  0.5051092103791431  0.6061900911740271  1.0000
  C   C2752     1.0  0.9050753728434291  0.5123115169861874  0.5840088125319326  1.0000
  C   C2753     1.0  0.916425232501735  0.5052642710161305  0.563774940647001  1.0000
  C   C2754     1.0  0.9304998949410436  0.4899028217477705  0.5661506898071508  1.0000
  C   C2755     1.0  0.9345272919374812  0.48192156133583314  0.5884087108619787  1.0000
  C   C2756     1.0  0.9247924839716349  0.489885471317607  0.6088396093668357  1.0000
  C   C2757     1.0  0.8884708010788038  0.529472989526873  0.5799665011888784  1.0000
  C   C2758     1.0  0.9025044560196586  0.5492685711334008  0.5833995902577989  1.0000
  C   C2759     1.0  0.9145215346127962  0.5565344030153829  0.5648712867466409  1.0000
  C   C2760     1.0  0.9284213624091265  0.5717415616955939  0.5686873621826539  1.0000
  C   C2761     1.0  0.9304225679311713  0.5804781696320943  0.5909072841673304  1.0000
  C   C2762     1.0  0.9196497870670939  0.5730886802307215  0.6099947368889947  1.0000
  C   C2763     1.0  0.9053074854142136  0.5577598509208646  0.6063034812637632  1.0000
  C   C2764     1.0  0.8701213803695494  0.5063668526149835  0.54789252684578  1.0000
  C   C2765     1.0  0.8615805007337186  0.5022491463612188  0.525731204859479  1.0000
  C   C2766     1.0  0.8602040565602055  0.5175435901584083  0.5083196213792849  1.0000
  C   C2767     1.0  0.8664340607428959  0.5374327758601076  0.5154657913979092  1.0000
  C   C2768     1.0  0.8744922867051576  0.5415184656083983  0.5381221110175475  1.0000
  C   C2769     1.0  0.8776190486446332  0.5259200906194132  0.5543428808465409  1.0000
  C   C2770     1.0  0.856300140865926  0.511585429061665  0.9806451693389164  1.0000
  C   C2771     1.0  0.9166292085218471  0.48360301623299146  0.9694658136116597  1.0000
  C   C2772     1.0  0.8998173602359865  0.4713737628412339  0.9744168784898947  1.0000
  C   C2773     1.0  0.8807262418923633  0.47988705037778767  0.9766375100072855  1.0000
  C   C2774     1.0  0.878198994584834  0.501130995887133  0.9752278444116869  1.0000
  C   C2775     1.0  0.8957809595023579  0.5130473594245881  0.971682816646179  1.0000
  C   C2776     1.0  0.9146029314414313  0.5042998022406542  0.9675917022085022  1.0000
  C   C2777     1.0  0.8501839715234468  0.5297637536214952  0.9627549345407213  1.0000
  C   C2778     1.0  0.8345266293284698  0.5434332410210052  0.9691973058791647  1.0000
  C   C2779     1.0  0.8276426620998267  0.5574051992967096  0.952141622141427  1.0000
  C   C2780     1.0  0.836769980706464  0.5588017014200692  0.9300187620735644  1.0000
  C   C2781     1.0  0.853676792301093  0.5469339058639356  0.9249624711920543  1.0000
  C   C2782     1.0  0.8595040145025282  0.5317577705686212  0.9402383840812951  1.0000
  C   C2783     1.0  0.8338117524208467  0.48395990063905003  0.9580578634634951  1.0000
  C   C2784     1.0  0.8165785197118473  0.47158590125271355  0.9551786623049174  1.0000
  C   C2785     1.0  0.8010515347530384  0.4719628699869919  0.9719803522416464  1.0000
  C   C2786     1.0  0.8026646485043525  0.4858352613321711  0.9909028904167987  1.0000
  C   C2787     1.0  0.8196342519476293  0.4985952877248774  0.9938328903355782  1.0000
  C   C2788     1.0  0.8359948775754389  0.4971241758595252  0.9776371570383986  1.0000
  H   H2013     1.0  0.90281275897764  0.5117506654434845  0.6220636151922129  1.0000
  H   H2014     1.0  0.9139275857208982  0.5111138838781661  0.5459759621930254  1.0000
  H   H2015     1.0  0.9390521890488807  0.4849650049298111  0.5503041979863581  1.0000
  H   H2016     1.0  0.9279562040914227  0.4842856845986506  0.6268813333249181  1.0000
  H   H2017     1.0  0.9138514116322519  0.5501958505459122  0.5465993355503582  1.0000
  H   H2018     1.0  0.9384169272502454  0.5763963596072026  0.5540328269851666  1.0000
  H   H2019     1.0  0.9210645013058155  0.5799555558971452  0.6275350045142286  1.0000
  H   H2020     1.0  0.8971448999446662  0.5523294829596251  0.6222279854662942  1.0000
  H   H2021     1.0  0.872174282003318  0.49398600901643996  0.5601767556074249  1.0000
  H   H2022     1.0  0.8587020940745994  0.4868034389214221  0.520656045867037  1.0000
  H   H2023     1.0  0.8661128089018318  0.5495775784762496  0.5024505371555181  1.0000
  H   H2024     1.0  0.8786722468397454  0.5571005467190897  0.5426673300865992  1.0000
  H   H2025     1.0  0.9006864921493595  0.45452260283507334  0.9742826246236472  1.0000
  H   H2026     1.0  0.8681174531917939  0.46949101757975026  0.9797507483110786  1.0000
  H   H2027     1.0  0.8940464003838388  0.5297667183388396  0.9730453119644473  1.0000
  H   H2028     1.0  0.9284558093850999  0.5135067581227171  0.9643133679340535  1.0000
  H   H2029     1.0  0.82789163785457  0.5429841435831465  0.9869460298453693  1.0000
  H   H2030     1.0  0.8140182641729768  0.5658560603275555  0.9564105322398098  1.0000
  H   H2031     1.0  0.8613045890554525  0.5485115098720069  0.9075784097544409  1.0000
  H   H2032     1.0  0.8715985271503794  0.5221907359614092  0.9349027000186755  1.0000
  H   H2033     1.0  0.84598602623422  0.48276577416278876  0.9447522167735078  1.0000
  H   H2034     1.0  0.8154984554231035  0.4625377091788726  0.9383261736079864  1.0000
  H   H2035     1.0  0.790529033124925  0.4875079734358284  0.5037967043008644  1.0000
  H   H2036     1.0  0.8191466788685516  0.509841434770569  0.5082314129606773  1.0000
  C   C2789     1.0  0.8284401826149194  0.551204096145936  0.8732638472381582  1.0000
  C   C2790     1.0  0.840598969554164  0.5625657127075757  0.8582618848057197  1.0000
  C   C2791     1.0  0.8569509641140185  0.5537705903939313  0.846814021345968  1.0000
  C   C2792     1.0  0.8611471300317382  0.5330241557381694  0.84878065906235  1.0000
  C   C2793     1.0  0.8481047054702464  0.5214184449125469  0.8630387825061201  1.0000
  C   C2794     1.0  0.8311877533138953  0.530191473711267  0.874330621202395  1.0000
  H   H2037     1.0  0.8386642534087266  0.5790359158926492  0.8566236247892133  1.0000
  H   H2038     1.0  0.865863324377087  0.5632522161945035  0.8343120836120299  1.0000
  H   H2039     1.0  0.8507009118552522  0.5051269390188515  0.8652539712992035  1.0000
  H   H2040     1.0  0.8217682535336858  0.5208996255461366  0.885792998593633  1.0000
  C   C2795     1.0  0.8938045981729479  0.505978976019081  0.8727159463245536  1.0000
  C   C2796     1.0  0.890522583033684  0.5041559948789439  0.8477102566152417  1.0000
  C   C2797     1.0  0.8983732831073572  0.4872097223521989  0.8356727646888625  1.0000
  C   C2798     1.0  0.9078386602702172  0.47187408449611096  0.848318027496227  1.0000
  C   C2799     1.0  0.9104329417978501  0.4734402682749116  0.8731368503376538  1.0000
  C   C2800     1.0  0.9035650431638356  0.4904844995101405  0.8851217292623955  1.0000
  C   C2801     1.0  0.8791795080897005  0.5220637482508049  0.8335029319316735  1.0000
  C   C2802     1.0  0.8986266288965471  0.5358252846075894  0.82668682685746  1.0000
  C   C2803     1.0  0.9096176913790361  0.5325354489562744  0.8057051246527012  1.0000
  C   C2804     1.0  0.9253525538134351  0.5452269687550392  0.7988690629226941  1.0000
  C   C2805     1.0  0.9314320953681984  0.5613034969319428  0.8138038984220088  1.0000
  C   C2806     1.0  0.9221913612398637  0.5636696056106213  0.8361589813936507  1.0000
  C   C2807     1.0  0.9061200636617949  0.5508650605327671  0.842488869763076  1.0000
  C   C2808     1.0  0.8541844046950358  0.49674764165239776  0.8116449511134344  1.0000
  C   C2809     1.0  0.8425480054279215  0.4901477020037245  0.7927205986968464  1.0000
  C   C2810     1.0  0.8414130442684058  0.5015801071196244  0.7712726364430929  1.0000
  C   C2811     1.0  0.851264430569807  0.520379721416069  0.7710621844365426  1.0000
  C   C2812     1.0  0.8624123506804466  0.5273746489061678  0.7904836390065335  1.0000
  C   C2813     1.0  0.8653634525920799  0.5150766306781039  0.8108122142944127  1.0000
  C   C2814     1.0  0.831214650259419  0.490409760022184  0.7478961355431085  1.0000
  C   C2815     1.0  0.8858975539748085  0.45229404367185383  0.7376583711210201  1.0000
  C   C2816     1.0  0.8693567801665614  0.4438350105058167  0.7492713305514274  1.0000
  C   C2817     1.0  0.8519831872004836  0.45523038062679116  0.7518130828029508  1.0000
  C   C2818     1.0  0.8500384799463838  0.4746561240259759  0.7420288787398063  1.0000
  C   C2819     1.0  0.8669664092529266  0.4823638723618376  0.7295505261445333  1.0000
  C   C2820     1.0  0.8844669092659198  0.47117433574763173  0.7276564580855823  1.0000
  C   C2821     1.0  0.825288682557131  0.5032952499261997  0.7244216656055923  1.0000
  C   C2822     1.0  0.8188197088336566  0.5233390330460438  0.7268037646107673  1.0000
  C   C2823     1.0  0.8140716835598316  0.5345689828621792  0.7062520376262874  1.0000
  C   C2824     1.0  0.8156487567207535  0.5259097579133952  0.6837046450624532  1.0000
  C   C2825     1.0  0.8202544633286736  0.505394060087009  0.681304585067064  1.0000
  C   C2826     1.0  0.824067798337634  0.4939464085999546  0.7013608427154332  1.0000
  C   C2827     1.0  0.8023289952026919  0.4616723850081686  0.7454033678103512  1.0000
  C   C2828     1.0  0.7843361349303803  0.45343000644747256  0.7543893056417538  1.0000
  C   C2829     1.0  0.7732543398513645  0.46335825798097613  0.7724047230990176  1.0000
  C   C2830     1.0  0.7794641393630467  0.4828475810468306  0.779619961289102  1.0000
  C   C2831     1.0  0.7968930182846045  0.4914708615661232  0.7701786488573195  1.0000
  C   C2832     1.0  0.8096910094199702  0.48021350780607064  0.7547086121344505  1.0000
  H   H2041     1.0  0.8885714722626644  0.5194331331456099  0.8827051596699407  1.0000
  H   H2042     1.0  0.896522275077024  0.4845702956793305  0.8163238797763028  1.0000
  H   H2043     1.0  0.9129817941303014  0.45815850366083244  0.8390780958638158  1.0000
  H   H2044     1.0  0.9064584992045286  0.4921840116645146  0.9042637906512767  1.0000
  H   H2045     1.0  0.9059423010387381  0.5204409842648368  0.7929183510133461  1.0000
  H   H2046     1.0  0.9334902039411682  0.5421243183686328  0.7820347166401209  1.0000
  H   H2047     1.0  0.9266231243521245  0.5751861645101648  0.8490727519335102  1.0000
  H   H2048     1.0  0.898891925903672  0.5537441661735075  0.8599055875465336  1.0000
  H   H2049     1.0  0.8551763791574257  0.4873611478643706  0.8271567153893261  1.0000
  H   H2050     1.0  0.8345772106373066  0.47550049772039127  0.7949049453855216  1.0000
  H   H2051     1.0  0.8512102930361312  0.5294150209077663  0.7549843768326886  1.0000
  H   H2052     1.0  0.8693478099170352  0.5425818306429817  0.7903221715187495  1.0000
  H   H2053     1.0  0.8697446916391265  0.4282276984396289  0.7563867854625441  1.0000
  H   H2054     1.0  0.8406585551506948  0.44952404380552585  0.7644565313688794  1.0000
  H   H2055     1.0  0.8668067528903827  0.497765672210487  0.7223969721632654  1.0000
  H   H2056     1.0  0.8975187082839542  0.4775847413420699  0.7182623159311301  1.0000
  H   H2057     1.0  0.8173979657016698  0.5310064234482701  0.7442658384301192  1.0000
  H   H2058     1.0  0.809809691889556  0.5506011112275743  0.7089207867783152  1.0000
  H   H2059     1.0  0.8205844663095511  0.49728110695117766  0.6640698356996151  1.0000
  H   H2060     1.0  0.8278766028586311  0.47786864478487273  0.699557486728271  1.0000
  H   H2061     1.0  0.8107324977527064  0.4527131703970455  0.7319126684939148  1.0000
  H   H2062     1.0  0.779477918386299  0.4380186888245779  0.7480630457552  1.0000
  H   H2063     1.0  0.7707024481501923  0.49249273592042625  0.7917064377342471  1.0000
  H   H2064     1.0  0.8007782506030393  0.506792429930898  0.7763615836704468  1.0000
  C   C2833     1.0  0.09326977721255948  0.497396739190443  0.7246974303038304  1.0000
  C   C2834     1.0  0.11412575088898289  0.4969182673915988  0.727692742914298  1.0000
  C   C2835     1.0  0.1262408797071393  0.5126661736124591  0.7200166873995263  1.0000
  C   C2836     1.0  0.11801842070878672  0.5298812907055965  0.7092800065825989  1.0000
  C   C2837     1.0  0.09676186579532628  0.5300912803701274  0.7054447001873668  1.0000
  C   C2838     1.0  0.08459802397598143  0.5141948455839149  0.7137811395847613  1.0000
  H   H2065     1.0  0.12089361635862372  0.48424521523874314  0.7371013990002365  1.0000
  H   H2066     1.0  0.14275371671506065  0.5112536337851795  0.7212594427830333  1.0000
  H   H2067     1.0  0.08980832954738507  0.542732428646811  0.6959544032368182  1.0000
  H   H2068     1.0  0.06842800782052476  0.5148903842375824  0.71088198177039  1.0000
  C   C2839     1.0  0.1250516472476214  0.5770074878611611  0.6698382163446674  1.0000
  C   C2840     1.0  0.12240500887224565  0.5680256974424754  0.6919685148024166  1.0000
  C   C2841     1.0  0.11030100598158452  0.5784034639843015  0.7088863161910355  1.0000
  C   C2842     1.0  0.10049166884005288  0.596200729263688  0.7032603534986915  1.0000
  C   C2843     1.0  0.10304585299936524  0.6044699655555806  0.6807476129462806  1.0000
  C   C2844     1.0  0.11527296539598388  0.594787066227628  0.6641567378643888  1.0000
  C   C2845     1.0  0.13365996139920694  0.5473996122980168  0.7001471151948985  1.0000
  C   C2846     1.0  0.14396663008987517  0.5353538137294018  0.6775960941481927  1.0000
  C   C2847     1.0  0.1639267734278254  0.5279187121622211  0.6792927727389312  1.0000
  C   C2848     1.0  0.17136775277615074  0.5147084010013694  0.6623040345101734  1.0000
  C   C2849     1.0  0.15929896781189898  0.5075261845436125  0.6435259099533092  1.0000
  C   C2850     1.0  0.13946118066731059  0.5139858218000172  0.642200243736187  1.0000
  C   C2851     1.0  0.13255686594181978  0.5286284055568743  0.6579230042910597  1.0000
  C   C2852     1.0  0.14869102041976145  0.550735017336085  0.7449534359342785  1.0000
  C   C2853     1.0  0.162336991731327  0.5580847319714449  0.7612344385789398  1.0000
  C   C2854     1.0  0.17802815106692235  0.571267539469067  0.7538976462126582  1.0000
  C   C2855     1.0  0.17910210946262334  0.5768570037476232  0.7296884084936525  1.0000
  C   C2856     1.0  0.16548837262935295  0.5691096474766544  0.7134110343318628  1.0000
  C   C2857     1.0  0.15011924963486603  0.5554501557352357  0.7204847616899566  1.0000
  C   C2858     1.0  0.19123819267390912  0.5834885630841257  0.7747723081727064  1.0000
  C   C2859     1.0  0.13968673976547383  0.6236605881123142  0.7892263696915403  1.0000
  C   C2860     1.0  0.1439831046354058  0.6083400935317294  0.8055962701665546  1.0000
  C   C2861     1.0  0.1615117818845429  0.5972338323883714  0.8026517563162887  1.0000
  C   C2862     1.0  0.17449088617560046  0.600001522510903  0.7829345803922663  1.0000
  C   C2863     1.0  0.16952884979698643  0.6161069261796802  0.7676423393301034  1.0000
  C   C2864     1.0  0.1524763661527193  0.6280503744463747  0.771303478547501  1.0000
  C   C2865     1.0  0.21180962996437552  0.5938391191860196  0.7655142341259372  1.0000
  C   C2866     1.0  0.22458677863247828  0.5841749979661546  0.749412841383418  1.0000
  C   C2867     1.0  0.24374948960309978  0.5914985320694399  0.7439265752816289  1.0000
  C   C2868     1.0  0.2514893936355555  0.6085078583991058  0.756655293195039  1.0000
  C   C2869     1.0  0.23905845919412982  0.6190022267618125  0.7723611813045589  1.0000
  C   C2870     1.0  0.21936244120012696  0.6119113563727033  0.7764359675693138  1.0000
  C   C2871     1.0  0.2063882118104993  0.5774114874132195  0.8176682326802134  1.0000
  C   C2872     1.0  0.21786065656535686  0.5662892086324572  0.8337551114912465  1.0000
  C   C2873     1.0  0.22193929920706026  0.5459958147678893  0.8288058608544472  1.0000
  C   C2874     1.0  0.21663609704176703  0.5376450790384553  0.8063909079154248  1.0000
  C   C2875     1.0  0.206169418020062  0.5489332478235276  0.7899085244713923  1.0000
  C   C2876     1.0  0.20089811602198673  0.5693645098530615  0.7950264995617188  1.0000
  H   H2069     1.0  0.13464978282521808  0.5703432425032214  0.6555113331504815  1.0000
  H   H2070     1.0  0.1082720156176088  0.5729120307168951  0.7273135664542206  1.0000
  H   H2071     1.0  0.09117662386311745  0.6042841955215449  0.716734724642206  1.0000
  H   H2072     1.0  0.1173166222319709  0.6013439146257256  0.6462193327888633  1.0000
  H   H2073     1.0  0.17310878240250036  0.5314628555071786  0.6947715178206918  1.0000
  H   H2074     1.0  0.18663613939782145  0.5088523411194225  0.6645155948203854  1.0000
  H   H2075     1.0  0.1284894784159708  0.5079587594721447  0.6287360323447129  1.0000
  H   H2076     1.0  0.11690782281151442  0.5327654092018946  0.656269323222349  1.0000
  H   H2077     1.0  0.13626181604807652  0.5418268541406762  0.7510220735369522  1.0000
  H   H2078     1.0  0.16115763135724243  0.5542456770643414  0.780010023197794  1.0000
  H   H2079     1.0  0.19047503203601843  0.5876833670823051  0.7228505325222097  1.0000
  H   H2080     1.0  0.16620750268220302  0.5749518698650148  0.6950509110018015  1.0000
  H   H2081     1.0  0.13339697639914508  0.6044650585875523  0.8195332728761919  1.0000
  H   H2082     1.0  0.1646350275465111  0.5849274559166652  0.8147382327614339  1.0000
  H   H2083     1.0  0.17792575626866355  0.6185847843434708  0.7510819435043327  1.0000
  H   H2084     1.0  0.14902030979373068  0.6395719968856652  0.7582681538314446  1.0000
  H   H2085     1.0  0.21977678954632113  0.5693867070902872  0.7424062409584479  1.0000
  H   H2086     1.0  0.2535917415908919  0.5821845684626022  0.7325258820992073  1.0000
  H   H2087     1.0  0.2450189938394668  0.6311913070265985  0.7839051995604068  1.0000
  H   H2088     1.0  0.21081505709216058  0.6196096314079744  0.7901570755480937  1.0000
  H   H2089     1.0  0.20439079013222652  0.5933199010754834  0.8229984740185257  1.0000
  H   H2090     1.0  0.22310960215397774  0.5732094845104823  0.8503173215584531  1.0000
  H   H2091     1.0  0.22132028908381543  0.5218855716321031  0.802535644864399  1.0000
  H   H2092     1.0  0.20204115855440344  0.541771039849449  0.7728836828380627  1.0000
  C   C2877     1.0  0.12910464552177756  0.48798481769611335  0.9583100430230681  1.0000
  C   C2878     1.0  0.14975380895013835  0.48597196045760593  0.9520091825166153  1.0000
  C   C2879     1.0  0.16098067490461776  0.5029474061699235  0.9451948916838374  1.0000
  C   C2880     1.0  0.15198365072757147  0.5222828683762594  0.9435366750115376  1.0000
  C   C2881     1.0  0.13124022937682484  0.5237092565761411  0.9480269225650851  1.0000
  C   C2882     1.0  0.11988638550052737  0.5071753629507574  0.9559479006736866  1.0000
  H   H2093     1.0  0.1567756028064731  0.4710164820026534  0.9540774177534008  1.0000
  H   H2094     1.0  0.1773537145185762  0.5020047626911872  0.9416208360553571  1.0000
  H   H2095     1.0  0.12393020931364203  0.5387322692515424  0.946873065011931  1.0000
  H   H2096     1.0  0.10361058875362461  0.5095055442115491  0.9603601358454958  1.0000
  C   C2883     1.0  0.14152418696309346  0.5611017133575127  0.911658638743503  1.0000
  C   C2884     1.0  0.1563305800495567  0.5623185555164479  0.9302001862171421  1.0000
  C   C2885     1.0  0.16333817701385916  0.5820489881240339  0.9369963346355621  1.0000
  C   C2886     1.0  0.15450357662825576  0.5994301105888724  0.927745517554536  1.0000
  C   C2887     1.0  0.13837061439497103  0.5974909285925177  0.9118237347141587  1.0000
  C   C2888     1.0  0.13255907291830304  0.5783475700725595  0.9033729981063102  1.0000
  C   C2889     1.0  0.1657935092604752  0.5422898559788142  0.9424227307699705  1.0000
  C   C2890     1.0  0.18560737287069642  0.5396647759731044  0.924982427847848  1.0000
  C   C2891     1.0  0.20431985057337929  0.5488035075665348  0.9303344400833895  1.0000
  C   C2892     1.0  0.22007345434173045  0.5477476031587494  0.9138302857421278  1.0000
  C   C2893     1.0  0.2175821840555967  0.5388425381311066  0.891108726000459  1.0000
  C   C2894     1.0  0.19901053721483186  0.5301573825327955  0.885435593030785  1.0000
  C   C2895     1.0  0.1833272369755704  0.5301766312915168  0.9023461374536605  1.0000
  C   C2896     1.0  0.155151113120854  0.5562109122910139  0.984819738882639  1.0000
  C   C2897     1.0  0.15851602194125597  0.5611114825460413  0.5085020977828952  1.0000
  C   C2898     1.0  0.1765551844663157  0.5561207998905721  0.5201248359746414  1.0000
  C   C2899     1.0  0.19052004571710604  0.5444428557943962  0.5069988404350105  1.0000
  C   C2900     1.0  0.18746419636491113  0.5396004703936169  0.982949255962353  1.0000
  C   C2901     1.0  0.17005087183367795  0.5464669187273902  0.9708464513442858  1.0000
  C   C2902     1.0  0.18050439266480836  0.5631188732750816  0.5478607776206539  1.0000
  C   C2903     1.0  0.13972147144337982  0.6148243631522519  0.5663299368610055  1.0000
  C   C2904     1.0  0.1427484288448711  0.5999347043698312  0.58287581875529  1.0000
  C   C2905     1.0  0.15594135319596622  0.5837736750863548  0.5775591842277461  1.0000
  C   C2906     1.0  0.16758717052449537  0.5829317078389793  0.5563490690262229  1.0000
  C   C2907     1.0  0.16696657806116852  0.6003625582475282  0.5424472626004394  1.0000
  C   C2908     1.0  0.15235708589671504  0.6158910991156153  0.5464384123350049  1.0000
  C   C2909     1.0  0.20296092948919275  0.5710772162184885  0.5546436820765926  1.0000
  C   C2910     1.0  0.2161745979463381  0.5795722610359683  0.5378064330077224  1.0000
  C   C2911     1.0  0.23620488620132357  0.5845643767826051  0.5427948712595343  1.0000
  C   C2912     1.0  0.24351000385466678  0.5826762501334379  0.5664462297370387  1.0000
  C   C2913     1.0  0.23044682139590342  0.5756966867225556  0.5841220211975252  1.0000
  C   C2914     1.0  0.21065893619638618  0.5701454543074673  0.5779953278689068  1.0000
  C   C2915     1.0  0.18982625224473434  0.5276791892177548  0.5664224631742301  1.0000
  C   C2916     1.0  0.1844830665336325  0.509870846389528  0.5789318392980548  1.0000
  C   C2917     1.0  0.1645989645739699  0.5065100679819715  0.5856853530427341  1.0000
  C   C2918     1.0  0.149398030522102  0.5197357884360468  0.5787979482800945  1.0000
  C   C2919     1.0  0.15435024811612078  0.536860806484116  0.5661358130273774  1.0000
  C   C2920     1.0  0.17465028440312322  0.54227814933154  0.5613942930349747  1.0000
  H   H2097     1.0  0.13722268557024014  0.5460943368240464  0.904285561548506  1.0000
  H   H2098     1.0  0.17573304659303515  0.5841306219738469  0.949806693413582  1.0000
  H   H2099     1.0  0.1600946388890311  0.6146986876833589  0.9325967991538032  1.0000
  H   H2100     1.0  0.12023986846367396  0.5767082077001809  0.8905535681211113  1.0000
  H   H2101     1.0  0.20649643796315187  0.5586951155608477  0.9463868483071429  1.0000
  H   H2102     1.0  0.23464899644507897  0.55444409710231  0.9192530533936648  1.0000
  H   H2103     1.0  0.19580844248027318  0.5234325126548623  0.8676759836159657  1.0000
  H   H2104     1.0  0.16868655231275329  0.5236318306114213  0.8970884657727793  1.0000
  H   H2105     1.0  0.140541481165558  0.5600206930076513  0.976461528588015  1.0000
  H   H2106     1.0  0.145849859559878  0.5679245286371744  0.5189121969989683  1.0000
  H   H2107     1.0  0.20417046391221144  0.5393611259957928  0.5155842613636654  1.0000
  H   H2108     1.0  0.19776365646673627  0.5293922566344849  0.9736385689139465  1.0000
  H   H2109     1.0  0.13410775702972277  0.5995766277929078  0.5995769997164772  1.0000
  H   H2110     1.0  0.15701251896325316  0.5717127782288379  0.59072876281005  1.0000
  H   H2111     1.0  0.17678262122693614  0.6016879181825817  0.5267435515806425  1.0000
  H   H2112     1.0  0.15061842909353976  0.627067028727534  0.5327866083790714  1.0000
  H   H2113     1.0  0.21216173842212918  0.581740626005538  0.5190477208342208  1.0000
  H   H2114     1.0  0.24618756580740267  0.5897904719466274  0.5283308314128036  1.0000
  H   H2115     1.0  0.23567696851857078  0.573234736542573  0.6022413946890589  1.0000
  H   H2116     1.0  0.20080890339510937  0.5648494294425631  0.5919482959031792  1.0000
  H   H2117     1.0  0.20522710691594898  0.5293425655066438  0.5602324528195032  1.0000
  H   H2118     1.0  0.1956715064985198  0.4983024945231502  0.5838546020098916  1.0000
  H   H2119     1.0  0.1340180953256591  0.5185364606291245  0.5845256899169855  1.0000
  H   H2120     1.0  0.14145078337976047  0.5464764497869283  0.5606495469255883  1.0000
  C   C2921     1.0  0.9960584881346399  0.6964736316674804  0.5228801244431558  1.0000
  C   C2922     1.0  0.9837093566600814  0.6863035056728704  0.5391667512362679  1.0000
  C   C2923     1.0  0.9916253217437693  0.675352786381151  0.5577463977800582  1.0000
  C   C2924     1.0  0.0126489148034008  0.6734471676411725  0.5600561085519457  1.0000
  C   C2925     1.0  0.024971600048366138  0.6848568587365862  0.5446080241504496  1.0000
  C   C2926     1.0  0.016776942248295963  0.6964898026497252  0.5265657559199364  1.0000
  H   H2121     1.0  0.966970698307952  0.6865680548361233  0.5364310565752599  1.0000
  H   H2122     1.0  0.9811964918590066  0.6670650985199973  0.5692610253246465  1.0000
  H   H2123     1.0  0.041499450283208936  0.685670389745983  0.5461033219418169  1.0000
  H   H2124     1.0  0.027716198424555534  0.7038514408078361  0.5144925778645154  1.0000
  C   C2927     1.0  0.050332153694848565  0.6442547649981818  0.5518053013503199  1.0000
  C   C2928     1.0  0.04363642782333093  0.6495714069116602  0.574880275323678  1.0000
  C   C2929     1.0  0.05670781929619105  0.6447596397106254  0.5934165614971534  1.0000
  C   C2930     1.0  0.07545522417380905  0.6357569269528383  0.5891462000056219  1.0000
  C   C2931     1.0  0.081926032850475  0.6319684817468801  0.5662366848512065  1.0000
  C   C2932     1.0  0.06895835290213033  0.6358791258941766  0.5475129875374155  1.0000
  C   C2933     1.0  0.022076226739837588  0.6593166454828359  0.5801702405021161  1.0000
  C   C2934     1.0  0.0097120118118641  0.6386051077819687  0.5850206149806654  1.0000
  C   C2935     1.0  0.00875956130719424  0.6286655670184573  0.6072283815477223  1.0000
  C   C2936     1.0  0.9958119702751552  0.6125104920475665  0.6111417003246928  1.0000
  C   C2937     1.0  0.9846321085274431  0.6046226247516429  0.5923882494513552  1.0000
  C   C2938     1.0  0.987326772972948  0.6120479769722074  0.5694696630897609  1.0000
  C   C2939     1.0  0.999858821423975  0.6285279691079071  0.5655316706292637  1.0000
  C   C2940     1.0  0.03868379095245253  0.6909206100090449  0.6014701606547102  1.0000
  C   C2941     1.0  0.04255506571833078  0.7029870031702988  0.6211374449392488  1.0000
  C   C2942     1.0  0.031503268829342054  0.7005428450246908  0.6425973811864785  1.0000
  C   C2943     1.0  0.015266308720990338  0.6871046209383944  0.642361711223971  1.0000
  C   C2944     1.0  0.01048863781189957  0.6760351823621417  0.6218484461579298  1.0000
  C   C2945     1.0  0.02331514030823498  0.67580701229174  0.6021831575389706  1.0000
  C   C2946     1.0  0.04021181530908689  0.7107115931002556  0.6672864857652473  1.0000
  C   C2947     1.0  0.08158246807625469  0.6602112149698114  0.6842579887003651  1.0000
  C   C2948     1.0  0.08765628867336837  0.6758669089802551  0.669463394064036  1.0000
  C   C2949     1.0  0.07473217400417546  0.6910381634225311  0.6632969688479741  1.0000
  C   C2950     1.0  0.05569479186495843  0.6926509100541165  0.6740955152978613  1.0000
  C   C2951     1.0  0.04901725498233444  0.6765317664553524  0.6886956232522753  1.0000
  C   C2952     1.0  0.061747078004841  0.6599872933451931  0.6932384838074604  1.0000
  C   C2953     1.0  0.025507366293925318  0.7156970506587604  0.6897932393209202  1.0000
  C   C2954     1.0  0.004524465487258489  0.7176891826138029  0.6877322610498778  1.0000
  C   C2955     1.0  0.9925627964210809  0.7201969881706234  0.707971938507404  1.0000
  C   C2956     1.0  0.001609036052970579  0.7216792946143945  0.7304014053779128  1.0000
  C   C2957     1.0  0.022879369428039708  0.7225764038626228  0.7322737025396343  1.0000
  C   C2958     1.0  0.0348023495610864  0.7190662008802698  0.7123497030919334  1.0000
  C   C2959     1.0  0.06814560432563804  0.7399585826716063  0.6673929817375275  1.0000
  C   C2960     1.0  0.07561837863784364  0.7581181166243335  0.6590775875407879  1.0000
  C   C2961     1.0  0.06422521141997478  0.7704092256518977  0.644310387950139  1.0000
  C   C2962     1.0  0.04408358917626151  0.7647197628118614  0.6397430351355708  1.0000
  C   C2963     1.0  0.03623795458099718  0.7469107557380801  0.6489249110420373  1.0000
  C   C2964     1.0  0.04855070691955296  0.7330664755367398  0.6617474252376772  1.0000
  H   H2125     1.0  0.04076530836460688  0.647503181222962  0.5364032986812926  1.0000
  H   H2126     1.0  0.05198301707598958  0.6463054509764357  0.6124751677799889  1.0000
  H   H2127     1.0  0.0841614246634517  0.6306631589717506  0.6044115902945353  1.0000
  H   H2128     1.0  0.07273055695156852  0.6324871738507672  0.5284919360523006  1.0000
  H   H2129     1.0  0.017786275721918394  0.6345731711435777  0.6221557786571503  1.0000
  H   H2130     1.0  0.993800486987669  0.6067075798844083  0.6294435865046659  1.0000
  H   H2131     1.0  0.9783418115541271  0.6063731608922238  0.5541935687763765  1.0000
  H   H2132     1.0  0.00040877221555413163  0.6347164219429658  0.5478288469713842  1.0000
  H   H2133     1.0  0.04864161730177565  0.6928430603018223  0.5860427586055821  1.0000
  H   H2134     1.0  0.05557787985295113  0.7134079480532188  0.6199157347563967  1.0000
  H   H2135     1.0  0.007776172649602619  0.6832641840152354  0.6592767912504363  1.0000
  H   H2136     1.0  0.9976209320856873  0.6655324722154783  0.622011546463006  1.0000
  H   H2137     1.0  0.10296080663866938  0.6753754573821847  0.6618760549554736  1.0000
  H   H2138     1.0  0.07989333480025301  0.7021075459838367  0.6493967952394829  1.0000
  H   H2139     1.0  0.032917099052813585  0.6741520944656308  0.6941020627308901  1.0000
  H   H2140     1.0  0.05586445263524722  0.6476147700550302  0.7038136971366035  1.0000
  H   H2141     1.0  0.9973213212112786  0.7169927583329664  0.670550668956497  1.0000
  H   H2142     1.0  0.9759741275187006  0.720477437811793  0.705858347234724  1.0000
  H   H2143     1.0  0.02991697448417461  0.724250002508984  0.7495652376640232  1.0000
  H   H2144     1.0  0.051559330348592274  0.7188118391877081  0.7130500002861433  1.0000
  H   H2145     1.0  0.07871008280534167  0.7308479144985849  0.6773970718626879  1.0000
  H   H2146     1.0  0.09104178851316629  0.7620923898207023  0.664262326715951  1.0000
  H   H2147     1.0  0.03404946371527081  0.7729658064981728  0.6278753562075804  1.0000
  H   H2148     1.0  0.02027822631930698  0.7430977725633804  0.6453361600579272  1.0000
  C   C2965     1.0  0.004162496768246315  0.6982043649016366  0.7838525865587693  1.0000
  C   C2966     1.0  0.9904903745995602  0.6826833415392568  0.788976004373403  1.0000
  C   C2967     1.0  0.9976967760796908  0.6639388338113951  0.7958283942763321  1.0000
  C   C2968     1.0  0.01861895113079308  0.6600610995507208  0.798324790491961  1.0000
  C   C2969     1.0  0.03177429986211434  0.6764699510629356  0.7935497070329964  1.0000
  C   C2970     1.0  0.024672279010133826  0.6956065666126322  0.7873268589082819  1.0000
  H   H2149     1.0  0.9739577839565491  0.684327838406728  0.7870873790387594  1.0000
  H   H2150     1.0  0.9863373087050831  0.6518874790508862  0.8004764808347923  1.0000
  H   H2151     1.0  0.047853610895415406  0.6750329013296321  0.7958574221393045  1.0000
  H   H2152     1.0  0.03539686359831589  0.7079095555371575  0.7834099116484398  1.0000
  C   C2971     1.0  0.05256053704763939  0.6358153303937594  0.7718296085638764  1.0000
  C   C2972     1.0  0.045970780489515646  0.6284522799973172  0.7939778680118398  1.0000
  C   C2973     1.0  0.05779124766156626  0.6136064870626577  0.8047254342773816  1.0000
  C   C2974     1.0  0.07644398250247977  0.608514501260457  0.7951970382566819  1.0000
  C   C2975     1.0  0.08382132561397448  0.6184382365157233  0.774832178140087  1.0000
  C   C2976     1.0  0.07160617570205634  0.6313955995300615  0.7625497636198778  1.0000
  C   C2977     1.0  0.026497372399585536  0.638165026518584  0.8080364248976742  1.0000
  C   C2978     1.0  0.010688727221874752  0.6188563788326046  0.8038890689754885  1.0000
  C   C2979     1.0  0.007237978893895657  0.6045611606231435  0.8215634090428263  1.0000
  C   C2980     1.0  0.994244149664222  0.5884274558873911  0.8176192481614475  1.0000
  C   C2981     1.0  0.9846227258536847  0.5858569930900807  0.7956651125471121  1.0000
  C   C2982     1.0  0.9881356339293383  0.5997627196352896  0.7776769087113852  1.0000
  C   C2983     1.0  0.0010580705742317957  0.6161613595001659  0.7816065556612776  1.0000
  C   C2984     1.0  0.05236948862647057  0.6539514657345593  0.8398019781966906  1.0000
  C   C2985     1.0  0.056176066731086056  0.663561170538401  0.8614857918370952  1.0000
  C   C2986     1.0  0.04173127340259425  0.6650809945618363  0.8796245777119918  1.0000
  C   C2987     1.0  0.023019876514207966  0.6549894414825035  0.8749583487391738  1.0000
  C   C2988     1.0  0.01866109335918677  0.6463058276374962  0.8527828756696737  1.0000
  C   C2989     1.0  0.033158395567698624  0.6450822213703573  0.8346640464505707  1.0000
  C   C2990     1.0  0.04591772233542581  0.6781825264967476  0.9040370104718045  1.0000
  C   C2991     1.0  0.09821512935617646  0.640988473988609  0.9232842978639607  1.0000
  C   C2992     1.0  0.10138252667006653  0.6614690727171887  0.9179867128714926  1.0000
  C   C2993     1.0  0.08509684598114454  0.6735532047742541  0.9129013941270101  1.0000
  C   C2994     1.0  0.06522470721367549  0.6656764512774782  0.9132497284826792  1.0000
  C   C2995     1.0  0.06232213404594767  0.6452242292105028  0.9196485580266641  1.0000
  C   C2996     1.0  0.07888204671229064  0.6328139241800068  0.9241950470647208  1.0000
  C   C2997     1.0  0.028513822247414347  0.6803134936465003  0.9243383721381472  1.0000
  C   C2998     1.0  0.009567611714390132  0.6874813807669159  0.9180356973902585  1.0000
  C   C2999     1.0  0.9950333676713564  0.691356287497277  0.9353381179632619  1.0000
  C   C3000     1.0  0.9986540147416593  0.687030427253487  0.9594022163674057  1.0000
  C   C3001     1.0  0.017656699183685325  0.6802662758136067  0.9656958199081155  1.0000
  C   C3002     1.0  0.0327152089657198  0.6772221881478632  0.9487435479322168  1.0000
  C   C3003     1.0  0.059190556721989744  0.7161255242332357  0.9118110350241082  1.0000
  C   C3004     1.0  0.06008657742842464  0.7368592990706541  0.9070105521850429  1.0000
  C   C3005     1.0  0.05237874686613907  0.744461782824743  0.885954466081417  1.0000
  C   C3006     1.0  0.043110668627603425  0.7308615731101116  0.8700254262752967  1.0000
  C   C3007     1.0  0.041402932065920564  0.7101399970272773  0.8754010236495033  1.0000
  C   C3008     1.0  0.04958312666455191  0.7020375992579676  0.8965369363763032  1.0000
  H   H2153     1.0  0.04289892709367224  0.6462146520845304  0.7619438069803285  1.0000
  H   H2154     1.0  0.05224053642746125  0.607308016120266  0.821565223284262  1.0000
  H   H2155     1.0  0.08484006389072177  0.5973663293823925  0.8055726850278895  1.0000
  H   H2156     1.0  0.07671916081561778  0.6386837048086779  0.746063751692974  1.0000
  H   H2157     1.0  0.014709749931878647  0.6057293251829184  0.8387497181639401  1.0000
  H   H2158     1.0  0.9914634809550454  0.577622835647605  0.8318429010179377  1.0000
  H   H2159     1.0  0.9806589752104604  0.5983517378684537  0.7604289153814547  1.0000
  H   H2160     1.0  0.003307825469298864  0.626926249746385  0.7670581535877834  1.0000
  H   H2161     1.0  0.06380884911328961  0.6554582990343498  0.8261733965311351  1.0000
  H   H2162     1.0  0.07034989663519496  0.671588833812617  0.8644030920658243  1.0000
  H   H2163     1.0  0.011179326730438977  0.6546633333090621  0.8884690047114037  1.0000
  H   H2164     1.0  0.0034113082157518635  0.6393509155239513  0.8506783556041726  1.0000
  H   H2165     1.0  0.11719261562307023  0.6677696714601059  0.9171086200165766  1.0000
  H   H2166     1.0  0.08798948423553443  0.68845281860763  0.9065914624133784  1.0000
  H   H2167     1.0  0.046776114111091956  0.6386571325771254  0.9193691648455545  1.0000
  H   H2168     1.0  0.07602292169917649  0.617062273239259  0.9285437837862778  1.0000
  H   H2169     1.0  0.006039797928405254  0.6913731427787321  0.8993998093619592  1.0000
  H   H2170     1.0  0.9808310869997331  0.6979201564700525  0.9308079570981272  1.0000
  H   H2171     1.0  0.021809604817151447  0.6776790908410686  0.9843716212480021  1.0000
  H   H2172     1.0  0.047484341039821715  0.6722006661044434  0.9555669099721736  1.0000
  H   H2173     1.0  0.06542809758229765  0.7109723615818079  0.9284186011272092  1.0000
  H   H2174     1.0  0.0673480381934745  0.7468061058339801  0.9203488552208738  1.0000
  H   H2175     1.0  0.036972053116607916  0.7353828808798799  0.8530767827822695  1.0000
  H   H2176     1.0  0.033769610353620104  0.7002122837753771  0.862576150939997  1.0000
  C   C3009     1.0  0.9881620342881059  0.7065311004437165  0.5000158251487056  1.0000
  C   C3010     1.0  0.9828567964352419  0.6899081515404489  0.9801081538739266  1.0000
  H   H2177     1.0  0.9990663962946399  0.7178410905674216  0.9933829584595055  1.0000
  H   H2178     1.0  0.974354640232815  0.7158198542459906  0.5047038250187529  1.0000
  H   H2179     1.0  0.9686266221706326  0.6951508060420055  0.9720511076576417  1.0000
  H   H2180     1.0  0.9788756760977194  0.675180480016139  0.9887058440380729  1.0000
  C   C3011     1.0  0.9873436847146178  0.7228209090287673  0.7527111323136602  1.0000
  C   C3012     1.0  0.9959241548249178  0.7195750027622579  0.7787200975369566  1.0000
  H   H2181     1.0  0.9752946841801583  0.7113646467598546  0.7499933986428665  1.0000
  H   H2182     1.0  0.9792825669337578  0.7380162956475345  0.7531755781212192  1.0000
  H   H2183     1.0  0.9837926933316655  0.7229866767603323  0.7917481652872701  1.0000
  H   H2184     1.0  0.007154328881274985  0.7319913721939363  0.7822415401637995  1.0000
  C   C3013     1.0  0.12458718247248793  0.6156237507017455  0.9049913014670232  1.0000
  C   C3014     1.0  0.11597893239538593  0.6265290447379394  0.9276711336556692  1.0000
  H   H2185     1.0  0.11137948852047226  0.6105084192477835  0.8941584658539998  1.0000
  H   H2186     1.0  0.13341933822821506  0.6258894386290494  0.8929175247119284  1.0000
  H   H2187     1.0  0.12866688556144998  0.634640014857105  0.9370308052228417  1.0000
  H   H2188     1.0  0.11096536135782521  0.6144860599116958  0.9406792447501889  1.0000
  C   C3015     1.0  0.10218242337602407  0.6206826751624693  0.560427120925562  1.0000
  C   C3016     1.0  0.12234846545074354  0.6302175632668104  0.569524997453552  1.0000
  H   H2189     1.0  0.10027260256847123  0.6055031638190783  0.5677221857388206  1.0000
  H   H2190     1.0  0.10457383708490131  0.6171860567978537  0.5411834620162773  1.0000
  H   H2191     1.0  0.12483428795746117  0.6453333838582388  0.5610221921164968  1.0000
  H   H2192     1.0  0.12044796726553228  0.6337025399491563  0.5891721436581535  1.0000
  C   C3017     1.0  0.09188462835130136  0.6241387305318356  0.6737324855865623  1.0000
  C   C3018     1.0  0.09560032031239066  0.6429105286705088  0.6903701680974972  1.0000
  H   H2193     1.0  0.09490842063669874  0.6282006104564712  0.654553957944822  1.0000
  H   H2194     1.0  0.07531823326755067  0.6209147809178628  0.6740216756714251  1.0000
  H   H2195     1.0  0.09336200359711637  0.6386769378598481  0.7096192697310892  1.0000
  H   H2196     1.0  0.11191663431914861  0.6474028615894913  0.6890113012621004  1.0000
  C   C3019     1.0  0.23343494873747395  0.53193775032897  0.8463459470555376  1.0000
  C   C3020     1.0  0.23618423715062947  0.538074155019516  0.8734960701419376  1.0000
  H   H2197     1.0  0.22663299690118383  0.5160217641523924  0.8450052226344985  1.0000
  H   H2198     1.0  0.2490944571033935  0.5302520971047857  0.8390236686207424  1.0000
  H   H2199     1.0  0.24380334563707293  0.5531643516024803  0.8749855623607103  1.0000
  H   H2200     1.0  0.24708967474899354  0.5272790371883526  0.8809507882015446  1.0000
  C   C3021     1.0  0.16799124091523276  0.4896298679938324  0.6275865289710046  1.0000
  C   C3022     1.0  0.16031034028203275  0.48784628540624786  0.6014759662273047  1.0000
  H   H2201     1.0  0.18497114530855052  0.49173661000702  0.6269713197001328  1.0000
  H   H2202     1.0  0.1647263815383342  0.4748180713913217  0.6367020036409217  1.0000
  H   H2203     1.0  0.16821986099872796  0.47420621040691263  0.5935216060762848  1.0000
  H   H2204     1.0  0.1437288465493167  0.4835487929644193  0.6012433804752382  1.0000
  C   C3023     1.0  0.10591704834582813  0.6169586775826374  0.7691136891345184  1.0000
  C   C3024     1.0  0.11785464467320851  0.6308243536338903  0.7879944997566478  1.0000
  H   H2205     1.0  0.10956619667637833  0.6229693461409368  0.750786222150301  1.0000
  H   H2206     1.0  0.11113831389010045  0.6007496708550139  0.7701024507170169  1.0000
  H   H2207     1.0  0.11075959267062888  0.6296870714183229  0.806274796463535  1.0000
  H   H2208     1.0  0.11641195136408121  0.6474331952404926  0.7840086113222462  1.0000
  C   C3025     1.0  0.9476923441998701  0.5769745837303911  0.8055617995792747  1.0000
  C   C3026     1.0  0.9676665403353064  0.5698043568393977  0.7944822271309857  1.0000
  H   H2209     1.0  0.9404161800521464  0.5872516260155501  0.7922434531992371  1.0000
  H   H2210     1.0  0.9513122147037472  0.5872603432693991  0.8220478115061787  1.0000
  H   H2211     1.0  0.9652409969128996  0.5647204815344528  0.7753873360194345  1.0000
  H   H2212     1.0  0.9726725065923599  0.5554058089647931  0.8039598243914838  1.0000
  C   C3027     1.0  0.9465767375574888  0.5970367921686878  0.5953973502967346  1.0000
  C   C3028     1.0  0.9685672897530091  0.5880303748533727  0.5956442685561438  1.0000
  H   H2213     1.0  0.9448815387806498  0.6088803191469248  0.5808211903292728  1.0000
  H   H2214     1.0  0.9440654959234875  0.6059480025520967  0.6121484228974053  1.0000
  H   H2215     1.0  0.969972454155921  0.576081307737517  0.58125715254629  1.0000
  H   H2216     1.0  0.9705669755751755  0.5796625998442121  0.6124307188648123  1.0000
  C   C3029     1.0  0.8150446046973743  0.5626850947377979  0.8915532151522243  1.0000
  C   C3030     1.0  0.8280043962485746  0.5735986033538194  0.9116967378136542  1.0000
  H   H2217     1.0  0.8045504177599645  0.5735820807990898  0.8830553082670457  1.0000
  H   H2218     1.0  0.8050425461201248  0.5517101275645625  0.900684292298489  1.0000
  H   H2219     1.0  0.8182970153854919  0.5849260517106625  0.9211362360040011  1.0000
  H   H2220     1.0  0.8408635175628197  0.5824471571006216  0.9035598649741953  1.0000
  C   C3031     1.0  0.8120551466611383  0.5308888930037957  0.6359766699148981  1.0000
  C   C3032     1.0  0.812281189186883  0.5401105964397347  0.6621412970533842  1.0000
  H   H2221     1.0  0.8029779091707637  0.5403660508468825  0.6230184504598623  1.0000
  H   H2222     1.0  0.8051472717759611  0.5155751846140886  0.635306126280235  1.0000
  H   H2223     1.0  0.7970007312572533  0.546476640443596  0.6644767700536598  1.0000
  H   H2224     1.0  0.8231524653894275  0.5532560629864123  0.663556042525003  1.0000
  C   C3033     1.0  0.10004153662512817  0.4643759732846663  0.9469365634621832  1.0000
  C   C3034     1.0  0.115785966626155  0.46979074143543886  0.9665775412459031  1.0000
  H   H2225     1.0  0.1080166799250311  0.45439112183774955  0.9330503595127475  1.0000
  H   H2226     1.0  0.09476496665620278  0.47840130400470066  0.9372104151249836  1.0000
  H   H2227     1.0  0.1251381056633005  0.45614407790474504  0.970528959093025  1.0000
  H   H2228     1.0  0.10815905875938898  0.4735252095798506  0.9843353364192865  1.0000
  C   C3035     1.0  0.9514401814728011  0.47462870138832364  0.9871310824718186  1.0000
  C   C3036     1.0  0.937046326077086  0.47272180824709176  0.9646490025996722  1.0000
  H   H2229     1.0  0.9421640804265534  0.47119864452646937  0.5037223204019976  1.0000
  H   H2230     1.0  0.9556863064978353  0.4912049785871724  0.9900356830104973  1.0000
  H   H2231     1.0  0.9352513254714423  0.4562380236291018  0.9587019191731959  1.0000
  H   H2232     1.0  0.9443768281124719  0.47993695070709214  0.9489431144901523  1.0000
  C   C3037     1.0  0.923206996228718  0.45766104373492095  0.8861594753636598  1.0000
  C   C3038     1.0  0.9163170418780783  0.4346012000025166  0.8856895868317937  1.0000
  H   H2233     1.0  0.9258647293688866  0.4624609849501925  0.9052307813365458  1.0000
  H   H2234     1.0  0.9387932078269992  0.4592944649819882  0.8782802248080811  1.0000
  H   H2235     1.0  0.9093174874035916  0.43127970341338046  0.8682728690483362  1.0000
  H   H2236     1.0  0.904424155600128  0.43359405192780776  0.9000402365887882  1.0000
  C   C3039     1.0  0.07958252677115035  0.480806498335977  0.7359475414470824  1.0000
  C   C3040     1.0  0.06518672898130193  0.469197812043904  0.7175602044954844  1.0000
  H   H2237     1.0  0.089499128883804  0.46907208723531835  0.7432426062603411  1.0000
  H   H2238     1.0  0.07062937103969538  0.4867482771361172  0.7518312252173085  1.0000
  H   H2239     1.0  0.07511057539854558  0.46253300355244575  0.7028394494855913  1.0000
  H   H2240     1.0  0.05644306235529504  0.4809831911027011  0.7079320251958169  1.0000
  C   C3041     1.0  0.9194461467148979  0.43676164081724866  0.7554941786761419  1.0000
  C   C3042     1.0  0.9059381804341019  0.44029798490310873  0.7333967179883802  1.0000
  H   H2241     1.0  0.9108621268439038  0.42826570373349476  0.7694547665244444  1.0000
  H   H2242     1.0  0.9221059245602937  0.4519566871677715  0.7640084137342424  1.0000
  H   H2243     1.0  0.9151932311574434  0.44801260615340527  0.7199187183619943  1.0000
  H   H2244     1.0  0.901563938195887  0.4255899237579917  0.724757300271211  1.0000
  C   C3043     1.0  0.01020352987709239  0.33219001044406793  0.791708251975683  1.0000
  C   C3044     1.0  0.021198930753759414  0.33407301185059773  0.8167066847192517  1.0000
  H   H2245     1.0  0.9950176901687423  0.32595780354779047  0.7947362209319945  1.0000
  H   H2246     1.0  0.017986324924171296  0.3200610439706584  0.7811003823006959  1.0000
  H   H2247     1.0  0.03749957124802704  0.33970445226117185  0.8147618179000989  1.0000
  H   H2248     1.0  0.022163384947765204  0.318521059657413  0.8239291798750792  1.0000
  C   C3045     1.0  0.07787463516217943  0.3969984342385304  0.5787340869815552  1.0000
  C   C3046     1.0  0.07530030419365052  0.3894575546988614  0.552034621467802  1.0000
  H   H2249     1.0  0.08237885868094974  0.4137929297487887  0.5786622430206984  1.0000
  H   H2250     1.0  0.09032717765684259  0.38871108653847847  0.587699705308877  1.0000
  H   H2251     1.0  0.0896868456561101  0.3934060716279038  0.5425065882953893  1.0000
  H   H2252     1.0  0.07562230149286703  0.37248279323700545  0.5530489638545449  1.0000
  C   C3047     1.0  0.9496670556328373  0.4645683330712089  0.5909996290564115  1.0000
  C   C3048     1.0  0.9414396562180765  0.44456696944406376  0.5797834442280084  1.0000
  H   H2253     1.0  0.9644504519257181  0.46856731531678053  0.581675153773093  1.0000
  H   H2254     1.0  0.9528783946200128  0.462179735603971  0.6103581294485809  1.0000
  H   H2255     1.0  0.9419297666322264  0.44502209915257424  0.5596838262093243  1.0000
  H   H2256     1.0  0.9253971212286164  0.4427980583677347  0.5850997159072653  1.0000
  C   C3049     1.0  0.5738805438988267  0.7141215012686405  0.8001444746520452  1.0000
  C   C3050     1.0  0.5792226151560127  0.6998149713602456  0.8214073842793495  1.0000
  H   H2257     1.0  0.588012144870887  0.7203048242381148  0.7917663077016278  1.0000
  H   H2258     1.0  0.5657206178160817  0.7283561918756372  0.8067827840655525  1.0000
  H   H2259     1.0  0.5871619956955398  0.6861658001795391  0.8136986724187337  1.0000
  H   H2260     1.0  0.5917319746886317  0.7072110002286569  0.8324270867602578  1.0000
  C   C3051     1.0  0.5388540776811479  0.7405787856901452  0.5670159015478727  1.0000
  C   C3052     1.0  0.5294664418761069  0.7412801155363806  0.5409147728596387  1.0000
  H   H2261     1.0  0.5439206418867154  0.7568208606033825  0.5713468587033591  1.0000
  H   H2262     1.0  0.5536697728791807  0.7327580997662502  0.5662375919719245  1.0000
  H   H2263     1.0  0.5402513241310881  0.7501664529389614  0.5292096499642939  1.0000
  H   H2264     1.0  0.5155447609633407  0.7508553746317219  0.5413741387911775  1.0000
  C   C3053     1.0  0.28270621732443907  0.6015700718375073  0.7806631501146737  1.0000
  C   C3054     1.0  0.27450461786221275  0.6124537074149498  0.7573410764577627  1.0000
  H   H2265     1.0  0.27581770485610535  0.6094042968340587  0.7974503261199165  1.0000
  H   H2266     1.0  0.27642480679110026  0.5851322758454828  0.7817190386302958  1.0000
  H   H2267     1.0  0.2808216073987649  0.6063114382812228  0.7399279871571768  1.0000
  H   H2268     1.0  0.2782832414345505  0.6294587685891039  0.7588614107809436  1.0000
  C   C3055     1.0  0.462888430079721  0.5919990105814447  0.9169888800818153  1.0000
  C   C3056     1.0  0.47374785640331657  0.5968736566708321  0.8928104844672177  1.0000
  H   H2269     1.0  0.4749015900919493  0.5867436564660158  0.9294654184356524  1.0000
  H   H2270     1.0  0.4570006959997049  0.6066679502654788  0.9257008674564156  1.0000
  H   H2271     1.0  0.4624469949063234  0.596084142373169  0.8775726706481282  1.0000
  H   H2272     1.0  0.4852277797165522  0.5844334260669466  0.8887647260654353  1.0000
  C   C3057     1.0  0.44838094040330745  0.6260101520951952  0.7712345373729416  1.0000
  C   C3058     1.0  0.4286494008645142  0.6393439582787244  0.7702131194445991  1.0000
  H   H2273     1.0  0.4461366526904082  0.611513940258037  0.7607736212542524  1.0000
  H   H2274     1.0  0.45070436241518125  0.6214896531373405  0.7898831250912914  1.0000
  H   H2275     1.0  0.4284941497255029  0.6477900388478968  0.7530522097035862  1.0000
  H   H2276     1.0  0.4288520996836014  0.6520810897173597  0.7842789332961768  1.0000
  C   C3059     1.0  0.2660226983408074  0.5859641831837427  0.5723026010917264  1.0000
  C   C3060     1.0  0.27561939034882454  0.6075102136877877  0.5664427826783108  1.0000
  H   H2277     1.0  0.26908488746398834  0.5829268244925944  0.5916748897188076  1.0000
  H   H2278     1.0  0.27390825337945096  0.5736343115495416  0.5618893995227981  1.0000
  H   H2279     1.0  0.2721176265166941  0.619283839777728  0.5807342881644991  1.0000
  H   H2280     1.0  0.26804766242775135  0.6133901059585535  0.5495384066763168  1.0000
  C   C3061     1.0  0.44301798681682536  0.626661834455694  0.6672786845270734  1.0000
  C   C3062     1.0  0.44439364593746894  0.6389042390323609  0.6437808108750357  1.0000
  H   H2281     1.0  0.4332350880000121  0.6355608158856398  0.6808775126330822  1.0000
  H   H2282     1.0  0.45834573829520053  0.6257308006942336  0.6757047474513953  1.0000
  H   H2283     1.0  0.428889761621011  0.6426196612881947  0.6382063726394679  1.0000
  H   H2284     1.0  0.4512859234696598  0.6295948376092421  0.6290983363594376  1.0000
  C   C3063     1.0  0.3589550947078907  0.5054562138283574  0.9879819617051979  1.0000
  C   C3064     1.0  0.3481083361377485  0.5069115710450967  0.9631885382438719  1.0000
  H   H2285     1.0  0.37440671557818733  0.4996985306539288  0.9847888967782307  1.0000
  H   H2286     1.0  0.35143122914392766  0.49245465722301046  0.9974940295529757  1.0000
  H   H2287     1.0  0.3335237670497595  0.5154848295208192  0.9661003957482936  1.0000
  H   H2288     1.0  0.3434043352348466  0.4910152021075328  0.9578365260083304  1.0000
  C   C3065     1.0  0.3678368612741725  0.500454277877517  0.7106025885892803  1.0000
  C   C3066     1.0  0.37951389299639876  0.4992201339273829  0.735455882017987  1.0000
  H   H2289     1.0  0.3520042311919443  0.5056138488733715  0.7141439878719167  1.0000
  H   H2290     1.0  0.3657439255680436  0.4846658748056325  0.7025636847873532  1.0000
  H   H2291     1.0  0.3959931345428712  0.49511734918112443  0.7331536096359862  1.0000
  H   H2292     1.0  0.3732884206742551  0.4852725199443376  0.7452310148739524  1.0000
  C   C3067     1.0  0.43500477812376626  0.6243470717174451  0.5151647543164708  1.0000
  C   C3068     1.0  0.4172424086462902  0.6394383002399356  0.512285154024777  1.0000
  H   H2293     1.0  0.432278690281216  0.6095968065395714  0.505531119113467  1.0000
  H   H2294     1.0  0.43659125848985414  0.6200647049622436  0.5339874547854122  1.0000
  H   H2295     1.0  0.41482274947959896  0.6440375473950093  0.9933992866324275  1.0000
  H   H2296     1.0  0.41966569530686676  0.6538676916222671  0.5231733058591773  1.0000
  C   C3069     1.0  0.7706358236991463  0.4506761046305979  0.9926100916078646  1.0000
  C   C3070     1.0  0.7841136697065294  0.4549647645875263  0.9698177764502005  1.0000
  H   H2297     1.0  0.7791691082431053  0.4506377942247324  0.5097147598643684  1.0000
  H   H2298     1.0  0.7645091981215518  0.4349534568370598  0.990266091672841  1.0000
  H   H2299     1.0  0.7912765334140787  0.4402916123444003  0.9640630026159165  1.0000
  H   H2300     1.0  0.7745687558061032  0.45839211986681266  0.9537236406734243  1.0000
  C   C3071     1.0  0.5887777465732734  0.5969566473948577  0.9726117082612967  1.0000
  C   C3072     1.0  0.571734644173203  0.5933607198063683  0.9917065993728477  1.0000
  H   H2301     1.0  0.5996842917955378  0.6076074417170845  0.9826390206768353  1.0000
  H   H2302     1.0  0.5827557309582512  0.6065397743997286  0.9575172195156336  1.0000
  H   H2303     1.0  0.5779605184430641  0.5904619836783833  0.5100309408984101  1.0000
  H   H2304     1.0  0.5632934283209042  0.5793139958985201  0.9870512558486445  1.0000
  C   C3073     1.0  0.7416359581041931  0.4624023093036522  0.8042192609167998  1.0000
  C   C3074     1.0  0.7556367397833926  0.45134015111247816  0.7854291623664594  1.0000
  H   H2305     1.0  0.7515837750638749  0.4721693227204326  0.8154929571987171  1.0000
  H   H2306     1.0  0.7372317665277756  0.4502960200419419  0.8164000779166055  1.0000
  H   H2307     1.0  0.7631533120645531  0.4388438857415102  0.7948015336236826  1.0000
  H   H2308     1.0  0.7467348261905689  0.4435971384550433  0.7718223515981333  1.0000
  C   C3075     1.0  0.5859723147259892  0.5921288634107358  0.6870374065799751  1.0000
  C   C3076     1.0  0.5636016036086465  0.5877525286953278  0.6954482298762364  1.0000
  H   H2309     1.0  0.587057185018071  0.6028442148409794  0.671536527752698  1.0000
  H   H2310     1.0  0.5934058121161033  0.6001956565446943  0.7024058457824407  1.0000
  H   H2311     1.0  0.5628864510033034  0.5762861918817318  0.7097553378387725  1.0000
  H   H2312     1.0  0.5545873626249787  0.581549341548846  0.6798468420734174  1.0000
  C   C3077     1.0  0.6874865330926355  0.5778466464985827  0.8461445662561664  1.0000
  C   C3078     1.0  0.6996761287502024  0.5683921979263408  0.8672641508100443  1.0000
  H   H2313     1.0  0.6742724203634926  0.5862880606033857  0.8536754824560759  1.0000
  H   H2314     1.0  0.6975906532195971  0.5897828789334905  0.8382562444934087  1.0000
  H   H2315     1.0  0.7091843346533727  0.5803217360753548  0.8770084415616016  1.0000
  H   H2316     1.0  0.7110272901297469  0.5574633174361959  0.8604661881501886  1.0000
  C   C3079     1.0  0.7182681959867472  0.5485616477087143  0.5959677478041427  1.0000
  C   C3080     1.0  0.7194964206236243  0.5397758469706894  0.6220946387207648  1.0000
  H   H2317     1.0  0.7329537331013034  0.5559228095354393  0.5926362562556258  1.0000
  H   H2318     1.0  0.70644227250997  0.5607506431134252  0.5949822518562288  1.0000
  H   H2319     1.0  0.7282046943112032  0.5252450792195154  0.6210648752818178  1.0000
  H   H2320     1.0  0.7286132395357106  0.5504577883984604  0.6340187405574078  1.0000
  C   C3081     1.0  0.44024935852016805  0.45505541567628816  0.8419899533682375  1.0000
  C   C3082     1.0  0.4268700826345039  0.4672151076461619  0.8233304802012728  1.0000
  H   H2321     1.0  0.4298168880026922  0.44389801100116166  0.850611228671049  1.0000
  H   H2322     1.0  0.44569152871819395  0.4645912655835434  0.8571297981497948  1.0000
  H   H2323     1.0  0.4148885988448911  0.45645917917651513  0.8160880283896519  1.0000
  H   H2324     1.0  0.43585868379570625  0.471680515615342  0.8072871431846985  1.0000
  C   C3083     1.0  0.5746651565178122  0.4723249033028648  0.7539230455927591  1.0000
  C   C3084     1.0  0.5849808790855859  0.47801433551545164  0.7779163885809076  1.0000
  H   H2325     1.0  0.5862275926780723  0.4655908457443799  0.7410836589517665  1.0000
  H   H2326     1.0  0.5703709309477966  0.4868478017907581  0.7460456092786162  1.0000
  H   H2327     1.0  0.5758815892262792  0.48948427581994247  0.7877586483699968  1.0000
  H   H2328     1.0  0.5846046862456089  0.46436421326794636  0.78979785574381  1.0000
  C   C3085     1.0  0.6043199836262427  0.43558592585477046  0.9121212703096262  1.0000
  C   C3086     1.0  0.5947541446247154  0.4560499710375556  0.9032260445500123  1.0000
  H   H2329     1.0  0.61998687363917  0.4333723866161915  0.9045105274865423  1.0000
  H   H2330     1.0  0.6064311078601571  0.4363445290604651  0.9322684214539276  1.0000
  H   H2331     1.0  0.5790182046378608  0.4568836898052428  0.9108186449587383  1.0000
  H   H2332     1.0  0.5938620451813152  0.4560056364546068  0.8830063237482797  1.0000
  C   C3087     1.0  0.4646035766553077  0.4949456349904057  0.5766270269780439  1.0000
  C   C3088     1.0  0.4716969428381645  0.47502890111208923  0.5886900997086677  1.0000
  H   H2333     1.0  0.47822562976547506  0.5035526133398873  0.5699272147798637  1.0000
  H   H2334     1.0  0.45609930253038905  0.4915874509889617  0.559818805772146  1.0000
  H   H2335     1.0  0.45859275187769644  0.4660801967087899  0.5960109267503143  1.0000
  H   H2336     1.0  0.4817903882091537  0.479128435683286  0.6040879296223927  1.0000
  C   C3089     1.0  0.603023756365501  0.4471122820320845  0.9963528716898722  1.0000
  C   C3090     1.0  0.6151894311364491  0.4496849703274267  0.5208302130448715  1.0000
  H   H2337     1.0  0.611582281279662  0.43711736805253526  0.9831070949672656  1.0000
  H   H2338     1.0  0.6031836594080263  0.4623439178936816  0.9878658502533083  1.0000
  H   H2339     1.0  0.6049768435908681  0.4580121144962135  0.5341975439436751  1.0000
  H   H2340     1.0  0.6168900882830304  0.43408175321285125  0.5284906660832955  1.0000
  C   C3091     1.0  0.6107506915113378  0.42752862130947145  0.6520444991908556  1.0000
  C   C3092     1.0  0.5998437316354177  0.4473159791680927  0.6458412448736475  1.0000
  H   H2341     1.0  0.6257539698931932  0.4275200004050263  0.6426120765421083  1.0000
  H   H2342     1.0  0.6152880573464902  0.42787851568379526  0.6721742336173736  1.0000
  H   H2343     1.0  0.584649093674914  0.4469312852563584  0.653616176546669  1.0000
  H   H2344     1.0  0.595801900691095  0.4475181333036673  0.6264301314798405  1.0000
  C   C3093     1.0  0.4677509091359803  0.377429442029612  0.9574301359267164  1.0000
  C   C3094     1.0  0.4623605466094803  0.3871631719923329  0.9329378765437292  1.0000
  H   H2345     1.0  0.47150339424859594  0.36077667890115045  0.9544529657306066  1.0000
  H   H2346     1.0  0.4539473794804758  0.3764320509924992  0.9687764018660646  1.0000
  H   H2347     1.0  0.44893423645185165  0.378550003141378  0.9247719758412979  1.0000
  H   H2348     1.0  0.4570835904796217  0.40322277160475656  0.935468743346638  1.0000
  C   C3095     1.0  0.47147222138055667  0.3832457986987352  0.678803108975415  1.0000
  C   C3096     1.0  0.474338688219119  0.37260894974780023  0.7033075237760218  1.0000
  H   H2349     1.0  0.4676359025917032  0.3998317014229707  0.680917063096382  1.0000
  H   H2350     1.0  0.45771417171948375  0.3768002812477869  0.6699652132451718  1.0000
  H   H2351     1.0  0.4585031620999683  0.3690769755428792  0.7106388734179959  1.0000
  H   H2352     1.0  0.482198884634142  0.3575932950519284  0.7002214990937653  1.0000
  C   C3097     1.0  0.830984263151122  0.008539855498110229  0.8519555815749594  1.0000
  C   C3098     1.0  0.841442517414265  0.00079931418865767  0.8282452602507923  1.0000
  H   H2353     1.0  0.8215881029703819  0.9958180190715771  0.85972234916152  1.0000
  H   H2354     1.0  0.8194425748642592  0.02054577254382646  0.8485647643314925  1.0000
  H   H2355     1.0  0.8317851137644977  0.9886219310466676  0.8201700716201495  1.0000
  H   H2356     1.0  0.855739285968448  0.9928211215510898  0.832254733823859  1.0000
  C   C3099     1.0  0.8149973453524538  0.01895561497845401  0.6069150620517636  1.0000
  C   C3100     1.0  0.8228661107013255  0.006951058859840367  0.5845519964178043  1.0000
  H   H2357     1.0  0.8030794287421801  0.030093223834374596  0.6014605451751006  1.0000
  H   H2358     1.0  0.8073204526514691  0.008184936626504937  0.6187780239520211  1.0000
  H   H2359     1.0  0.8106633801399886  0.9970801726830022  0.5778431130124452  1.0000
  H   H2360     1.0  0.8354592326577942  0.9965026804972869  0.5893425009289729  1.0000
  C   C3101     1.0  0.9641698494313926  0.2832243398118063  0.9043744593788591  1.0000
  C   C3102     1.0  0.9759375020209546  0.2739693321117238  0.8824693082832897  1.0000
  H   H2361     1.0  0.9684967839342075  0.2768624408594155  0.922250180245568  1.0000
  H   H2362     1.0  0.9478624191280058  0.2788807190246618  0.9030972334080721  1.0000
  H   H2363     1.0  0.9680794802650464  0.27865685066208606  0.8659687824248996  1.0000
  H   H2364     1.0  0.9910913939421825  0.28173533335535594  0.8803829306321463  1.0000
  C   C3103     1.0  0.9469052314325643  0.1086679837339632  0.8980554564580485  1.0000
  C   C3104     1.0  0.9396044610961024  0.1299385398585224  0.9086379267529345  1.0000
  H   H2365     1.0  0.9507168781159256  0.11009893945742813  0.8782911102566957  1.0000
  H   H2366     1.0  0.9618252025505577  0.10619618692876553  0.9066259330006581  1.0000
  H   H2367     1.0  0.9368850203116148  0.12873233191694375  0.9284730283702824  1.0000
  H   H2368     1.0  0.9243242839323587  0.13392497403037415  0.9016494687423223  1.0000
  C   C3105     1.0  0.9465482794426433  0.10314983664064113  0.7743949459540648  1.0000
  C   C3106     1.0  0.9324305412906163  0.10400919714397622  0.7519128660819184  1.0000
  H   H2369     1.0  0.9490150376775948  0.0868235932737647  0.7789232925777637  1.0000
  H   H2370     1.0  0.9381157821959006  0.11073239992862738  0.7899339238514931  1.0000
  H   H2371     1.0  0.9391235823467506  0.09468035218516177  0.7366786807457005  1.0000
  H   H2372     1.0  0.932514978922091  0.11999777271905523  0.7451185319049343  1.0000
  C   C3107     1.0  0.9659655126565202  0.30346132824461153  0.6120947213509065  1.0000
  C   C3108     1.0  0.9861453702885845  0.2910306529963927  0.613104890982347  1.0000
  H   H2373     1.0  0.9553620225338734  0.2991206915206563  0.627546434235274  1.0000
  H   H2374     1.0  0.9573883798796438  0.29927917086464134  0.5954561317192537  1.0000
  H   H2375     1.0  0.9956591682696108  0.2963488415783531  0.6283387134702777  1.0000
  H   H2376     1.0  0.9950832180830165  0.29354745076893163  0.5965751558368407  1.0000
  C   C3109     1.0  0.9107165207319711  0.15784322617153682  0.6440025111784876  1.0000
  C   C3110     1.0  0.9228561149551139  0.1376441308654169  0.6396122283280513  1.0000
  H   H2377     1.0  0.9035914636944785  0.15748318719316756  0.6619591472132322  1.0000
  H   H2378     1.0  0.897890164797067  0.15836584971086018  0.6312512966712738  1.0000
  H   H2379     1.0  0.9368694042400025  0.13645193354257246  0.6511246787829167  1.0000
  H   H2380     1.0  0.9288628641817157  0.13826728694335863  0.6208125142981012  1.0000
  C   C3111     1.0  0.07759325473585858  0.1858951815108585  0.9403000682901117  1.0000
  C   C3112     1.0  0.0703148908235737  0.19635328996600507  0.9643714236599984  1.0000
  H   H2381     1.0  0.08418410279887491  0.17061683660690294  0.9433679505580101  1.0000
  H   H2382     1.0  0.09102413981357418  0.19467326861271983  0.9334839632158981  1.0000
  H   H2383     1.0  0.08239170645111406  0.20042920265754208  0.9769223459127024  1.0000
  H   H2384     1.0  0.0641266483290428  0.21124703392807587  0.9593713742629976  1.0000
  C   C3113     1.0  0.05535076752770362  0.16959900501720226  0.6757820341365594  1.0000
  C   C3114     1.0  0.06034918724450645  0.17879289595094827  0.7007712142488057  1.0000
  H   H2385     1.0  0.0531762504835876  0.1531855201669057  0.6775953684516184  1.0000
  H   H2386     1.0  0.06857818964190456  0.17058047561046466  0.6631099205559455  1.0000
  H   H2387     1.0  0.07754774904273631  0.17857381685450907  0.7028630346242564  1.0000
  H   H2388     1.0  0.05729097740486043  0.19526128973856727  0.7014533690286578  1.0000
  C   C3115     1.0  0.9423940409736101  0.11262791396014063  0.9934174290467853  1.0000
  C   C3116     1.0  0.9286811629363744  0.1096446838740455  0.5155905386390333  1.0000
  H   H2389     1.0  0.9350013216154972  0.12184976286632061  0.9793788288167443  1.0000
  H   H2390     1.0  0.9452636215077387  0.09711702627975528  0.9852424571371751  1.0000
  H   H2391     1.0  0.9376664366969786  0.10235521736050424  0.5297845830752916  1.0000
  H   H2392     1.0  0.925284210742463  0.12497205903269896  0.5239465355591053  1.0000
  C   C3117     1.0  0.0363975441379642  0.7752941045813536  0.8623584419677037  1.0000
  C   C3118     1.0  0.051987287807457344  0.7678454696974991  0.881402534319053  1.0000
  H   H2393     1.0  0.02139434871184483  0.7678029072812078  0.8649455502551215  1.0000
  H   H2394     1.0  0.04257162045517837  0.7705647209712747  0.8440799595022523  1.0000
  H   H2395     1.0  0.04994982880097798  0.7765275772896418  0.8984310044352543  1.0000
  H   H2396     1.0  0.0670488969168548  0.7720675625708656  0.8743886769283398  1.0000
  C   C3119     1.0  0.9710827810141852  0.9776368883164533  0.9653946558297765  1.0000
  C   C3120     1.0  0.9525533578099111  0.9739106631554357  0.9484968110969513  1.0000
  H   H2397     1.0  0.965136691031074  0.9831171127667635  0.9834572435643706  1.0000
  H   H2398     1.0  0.9799569601290049  0.991390313878086  0.959148222566397  1.0000
  H   H2399     1.0  0.9583599012865616  0.9659973711435574  0.9316751645044287  1.0000
  H   H2400     1.0  0.9425646910207827  0.9617023151301474  0.9559714858123518  1.0000
  C   C3121     1.0  0.06559054482605588  0.7925449850994042  0.6052802490939851  1.0000
  C   C3122     1.0  0.07464126399273535  0.7883305593756035  0.6305490038114847  1.0000
  H   H2401     1.0  0.07912224926259773  0.7945979303905228  0.5935580723291439  1.0000
  H   H2402     1.0  0.05837322807445054  0.7785454070236598  0.596480089585606  1.0000
  H   H2403     1.0  0.07575682522602845  0.8025371424488068  0.6419584053527979  1.0000
  H   H2404     1.0  0.09072601033373799  0.7836442934718093  0.6272481729432323  1.0000
  C   C3123     1.0  0.9557439192613594  0.9887342974806513  0.6857293385047801  1.0000
  C   C3124     1.0  0.9594473233528711  0.009392882863383826  0.6727878100709533  1.0000
  H   H2405     1.0  0.9429580889660016  0.9792507630855097  0.6773636898202696  1.0000
  H   H2406     1.0  0.949903671731317  0.9915620081454701  0.7040422915575114  1.0000
  H   H2407     1.0  0.9663691486835218  0.006956571228924397  0.6544373022205017  1.0000
  H   H2408     1.0  0.970961231270499  0.019253206146836916  0.6825054314734048  1.0000
  C   C3125     1.0  0.9685340733823126  0.8691768010148031  0.7825572181736246  1.0000
  C   C3126     1.0  0.9753757475414163  0.8581250135231723  0.7588196832279209  1.0000
  H   H2409     1.0  0.9534761270428436  0.8624076206168653  0.7881178681742806  1.0000
  H   H2410     1.0  0.9660253635317743  0.8859338356421729  0.7783536207669298  1.0000
  H   H2411     1.0  0.9869924361967681  0.845869019452563  0.7631448348108127  1.0000
  H   H2412     1.0  0.9629059159737153  0.8501815226285774  0.7490681355106203  1.0000
  C   C3127     1.0  0.9519501570882395  0.8500839539833654  0.5362581593664304  1.0000
  C   C3128     1.0  0.9566937652520965  0.838225746527718  0.5122674833131926  1.0000
  H   H2413     1.0  0.9403582186232773  0.841503351231549  0.5465991541262147  1.0000
  H   H2414     1.0  0.9435132392607438  0.8639339255800151  0.5315922932418996  1.0000
  H   H2415     1.0  0.9415373062650308  0.8345110192376273  0.5036025804672363  1.0000
  H   H2416     1.0  0.9637694764407683  0.8229925312970282  0.5156019502176643  1.0000
  C   C3129     1.0  0.09937242059706523  0.07178496034731996  0.8184265856003682  1.0000
  C   C3130     1.0  0.08902216002655419  0.08728203799616845  0.8360864117362197  1.0000
  H   H2417     1.0  0.10935156640289448  0.08073428894711818  0.8059917747995539  1.0000
  H   H2418     1.0  0.08699950433040138  0.06445384560507872  0.8065306045059796  1.0000
  H   H2419     1.0  0.10078107061659164  0.09615520243960263  0.8463205476754366  1.0000
  H   H2420     1.0  0.08085412655122262  0.07812681333291606  0.8491562070395559  1.0000
  C   C3131     1.0  0.10195925957613051  0.9325695432555785  0.8888137105842013  1.0000
  C   C3132     1.0  0.0950457110314062  0.9242316225074074  0.863860633876527  1.0000
  H   H2421     1.0  0.10904605151744838  0.9201552197900643  0.9004284842560445  1.0000
  H   H2422     1.0  0.0882926085590049  0.9377401522352364  0.8991621437338723  1.0000
  H   H2423     1.0  0.09026858579173902  0.9373301022709708  0.8524617549355411  1.0000
  H   H2424     1.0  0.10781091243285341  0.9167020716522953  0.8541725846094788  1.0000
  C   C3133     1.0  0.09369439805749881  0.9522229764099727  0.7154937835001346  1.0000
  C   C3134     1.0  0.11202633724042677  0.9370706487716958  0.7120957092909247  1.0000
  H   H2425     1.0  0.09702783906754985  0.9653735664363876  0.703955207968594  1.0000
  H   H2426     1.0  0.09326745472866291  0.9587742130264544  0.7337631947584072  1.0000
  H   H2427     1.0  0.11235212127683035  0.9307775964055963  0.6936503166133818  1.0000
  H   H2428     1.0  0.10852404672115817  0.9236005995269375  0.7238392941047079  1.0000
  C   C3135     1.0  0.08198438224678481  0.09640460617792279  0.5769691929128314  1.0000
  C   C3136     1.0  0.07066870837594733  0.11138610247082611  0.5945725961400303  1.0000
  H   H2429     1.0  0.09109495508890451  0.10487812554444242  0.5630269289030302  1.0000
  H   H2430     1.0  0.07084068605732098  0.0873880363105707  0.5665906433553266  1.0000
  H   H2431     1.0  0.08246892185401541  0.12110774352207022  0.6044377153712104  1.0000
  H   H2432     1.0  0.06279672176488114  0.10304356544385779  0.6095769170863353  1.0000
  C   C3137     1.0  0.07863728328517387  0.9508404358061998  0.6164889955325016  1.0000
  C   C3138     1.0  0.07832671801408772  0.9409912851976594  0.590669074266813  1.0000
  H   H2433     1.0  0.08476366578857003  0.939934108034472  0.6293102397591362  1.0000
  H   H2434     1.0  0.06277069046698824  0.9545797793495436  0.62326428017441  1.0000
  H   H2435     1.0  0.09407995422719181  0.9366513738280423  0.5859282799709845  1.0000
  H   H2436     1.0  0.0736093171193945  0.952213130415422  0.5769924152032094  1.0000
  C   C3139     1.0  0.20461268836780255  0.027255033183394645  0.9552584889280914  1.0000
  C   C3140     1.0  0.21057363248665578  0.017370313445352926  0.9304432945695361  1.0000
  H   H2437     1.0  0.1949674517553618  0.04100798868023663  0.9529054177858889  1.0000
  H   H2438     1.0  0.21925864756215663  0.03387059174811281  0.9626116094672948  1.0000
  H   H2439     1.0  0.21862868573632221  0.002950486184272195  0.9336962294638841  1.0000
  H   H2440     1.0  0.22171070852884364  0.02778761359402882  0.9219272452699998  1.0000
  C   C3141     1.0  0.15702172782541715  0.07260078491363706  0.7199114613962512  1.0000
  C   C3142     1.0  0.16493071663107783  0.07295395971292667  0.6929717903164011  1.0000
  H   H2441     1.0  0.1407178474181628  0.07502569682266792  0.7190986812330231  1.0000
  H   H2442     1.0  0.16430653588416433  0.08517143474886836  0.7311561298151958  1.0000
  H   H2443     1.0  0.18167150554696715  0.07230722063438032  0.6939115673801336  1.0000
  H   H2444     1.0  0.1614053694805507  0.0881392528246021  0.6869466945081864  1.0000
  C   C3143     1.0  0.0863566229205645  0.919198768663302  0.520347987671242  1.0000
  C   C3144     1.0  0.10840944989253577  0.9146867204748579  0.511783171561912  1.0000
  H   H2445     1.0  0.08425366210142077  0.9359436098018907  0.5218897300433651  1.0000
  H   H2446     1.0  0.0847003503242791  0.9139623585257984  0.5394125809508156  1.0000
  H   H2447     1.0  0.10895631107768439  0.9118071493472272  0.9922109584919937  1.0000
  H   H2448     1.0  0.1131343589089123  0.8993863063910364  0.5197295127657857  1.0000
  C   C3145     1.0  0.759973581631632  0.1176770937967085  0.7688615095749455  1.0000
  C   C3146     1.0  0.7759201235450711  0.11290730339130682  0.7886421839492201  1.0000
  H   H2449     1.0  0.754118535954847  0.13382146879829182  0.7718368655296194  1.0000
  H   H2450     1.0  0.768026908948903  0.11922833087979204  0.7515119187246118  1.0000
  H   H2451     1.0  0.7683154202189275  0.10626060764715989  0.8048488026950145  1.0000
  H   H2452     1.0  0.7812298512438964  0.12819742665911604  0.7942282333299769  1.0000
  C   C3147     1.0  0.7768954829912222  0.11845805938023597  0.501784710548588  1.0000
  C   C3148     1.0  0.7597792819472721  0.11409415793445969  0.9822779866311155  1.0000
  H   H2453     1.0  0.7828020960950508  0.13382934429970517  0.9981544134355985  1.0000
  H   H2454     1.0  0.7691933001766759  0.11967205959424121  0.5195036397070315  1.0000
  H   H2455     1.0  0.766495107185148  0.1150844831258314  0.9640049468899715  1.0000
  H   H2456     1.0  0.7498349013397215  0.12791315418129476  0.9823995408073127  1.0000
  C   C3149     1.0  0.7091437170990852  0.9888383654311582  0.9212922607674779  1.0000
  C   C3150     1.0  0.7180887169453001  0.9960374284128357  0.8964607382360006  1.0000
  H   H2457     1.0  0.7203645369456094  0.9775080635709019  0.9279922543898017  1.0000
  H   H2458     1.0  0.6951602327746932  0.9795094493538058  0.9180901246333318  1.0000
  H   H2459     1.0  0.7233760335218347  0.981978307315583  0.8863336425414944  1.0000
  H   H2460     1.0  0.732353221837849  0.005833938550957958  0.899229270666996  1.0000
  C   C3151     1.0  0.71797052504577  0.00883142486138227  0.6629947162247737  1.0000
  C   C3152     1.0  0.706037719817851  0.0028936646660727926  0.6862409545896693  1.0000
  H   H2461     1.0  0.7266544439589694  0.9954908161245218  0.6571737225780838  1.0000
  H   H2462     1.0  0.7303694540668159  0.020069897880016174  0.6670127167325886  1.0000
  H   H2463     1.0  0.6917316442782698  0.9942466239830118  0.6819031033167269  1.0000
  H   H2464     1.0  0.7153593143839451  0.9915844294453194  0.6960106447213273  1.0000
  C   C3153     1.0  0.5579126662242456  0.29026004312743225  0.8940042553319588  1.0000
  C   C3154     1.0  0.5650137003660051  0.2828515677125168  0.9191405704246466  1.0000
  H   H2465     1.0  0.568478416128987  0.28389421140206034  0.8798640575815142  1.0000
  H   H2466     1.0  0.5427041856297143  0.2834900601800792  0.889555735331434  1.0000
  H   H2467     1.0  0.5548307953225574  0.2885673325651864  0.93366357311804  1.0000
  H   H2468     1.0  0.5807088838591101  0.2887864901196474  0.9230339325458237  1.0000
  C   C3155     1.0  0.6053678488488201  0.1042512096459178  0.9779256214266872  1.0000
  C   C3156     1.0  0.6092480107518291  0.08746877129375098  0.9973815465839577  1.0000
  H   H2469     1.0  0.6097566475705157  0.09796068578759477  0.9599882163511616  1.0000
  H   H2470     1.0  0.6157259839920499  0.11772196415760804  0.9802333365329952  1.0000
  H   H2471     1.0  0.5974909502073624  0.07536821907113583  0.9947127974319299  1.0000
  H   H2472     1.0  0.6063705809216048  0.09375143667438773  0.5158358966508076  1.0000
  C   C3157     1.0  0.6177643360693028  0.13109211774019672  0.8900383235533507  1.0000
  C   C3158     1.0  0.6088437899816734  0.11031147220223396  0.8993907381547802  1.0000
  H   H2473     1.0  0.624382848437988  0.12927583713184593  0.8712645531759321  1.0000
  H   H2474     1.0  0.6309318706312632  0.13495030349238168  0.9021737845172618  1.0000
  H   H2475     1.0  0.6084540070347151  0.10981784574824682  0.9191187995274174  1.0000
  H   H2476     1.0  0.5929006930895864  0.1081983596750152  0.8925818900463097  1.0000
  C   C3159     1.0  0.5738352242764402  0.28667693888362983  0.6090716508464715  1.0000
  C   C3160     1.0  0.5550390417074005  0.2725800517519677  0.6037675345848345  1.0000
  H   H2477     1.0  0.5856118395485146  0.28465001456599537  0.5943293063634927  1.0000
  H   H2478     1.0  0.5813896307653988  0.2823298234994126  0.6255529457456426  1.0000
  H   H2479     1.0  0.5513363088714719  0.2741038852014482  0.58405634565755  1.0000
  H   H2480     1.0  0.5416608178330398  0.2781439576336562  0.6141335658764324  1.0000
  C   C3161     1.0  0.5968242560390962  0.11912920200061847  0.7653563951210247  1.0000
  C   C3162     1.0  0.6076412294683855  0.11151507225363363  0.7418964391149946  1.0000
  H   H2481     1.0  0.5931384349880642  0.10535790045266791  0.7761710883196903  1.0000
  H   H2482     1.0  0.6071828042022751  0.12913187514480623  0.7761366177324105  1.0000
  H   H2483     1.0  0.610847457521355  0.12518762344734446  0.7303252072376101  1.0000
  H   H2484     1.0  0.5966431340751214  0.10227954169660747  0.7308331948396276  1.0000
  C   C3163     1.0  0.5068007947924651  0.22735764275532103  0.7989960598231984  1.0000
  C   C3164     1.0  0.5005143233881539  0.2240825443469916  0.8252463191574532  1.0000
  H   H2485     1.0  0.5187282997469242  0.23955389713448919  0.7975083818458614  1.0000
  H   H2486     1.0  0.49347071509236246  0.23392094801346167  0.7899756514045161  1.0000
  H   H2487     1.0  0.49648213591050117  0.23858913088012104  0.8343882817523326  1.0000
  H   H2488     1.0  0.48583458788526956  0.21489907553720086  0.8252753470204256  1.0000
  C   C3165     1.0  0.4712000088147348  0.15659226224899933  0.5807364652542221  1.0000
  C   C3166     1.0  0.46868896926611897  0.16398894212707324  0.5542363848742609  1.0000
  H   H2489     1.0  0.4692476992873323  0.13955629181033158  0.5816561042380173  1.0000
  H   H2490     1.0  0.4579284821387916  0.1627109806045272  0.5912117138802538  1.0000
  H   H2491     1.0  0.45321415494718803  0.1582929112865226  0.5489362599437824  1.0000
  H   H2492     1.0  0.46820715027331067  0.18106991969848335  0.5550838170489122  1.0000
  C   C3167     1.0  0.6072209487106646  0.10839885955729411  0.610072386422446  1.0000
  C   C3168     1.0  0.615667091225315  0.12879471022992361  0.6000370913445902  1.0000
  H   H2493     1.0  0.5914951757713045  0.1048565209244351  0.6031340014754613  1.0000
  H   H2494     1.0  0.6050434077150512  0.11113248275099437  0.6301948638832211  1.0000
  H   H2495     1.0  0.6196045320595255  0.12721148991733214  0.5804554392558202  1.0000
  H   H2496     1.0  0.6305261242763508  0.13256248038606844  0.6091112013097715  1.0000
  C   C3169     1.0  0.4538351405111236  0.7659856787847178  0.8539530613957497  1.0000
  C   C3170     1.0  0.46535921490295257  0.7494727251074929  0.8377156005455473  1.0000
  H   H2497     1.0  0.44601301362398005  0.7579018647559399  0.8683073396356159  1.0000
  H   H2498     1.0  0.4402874272586341  0.7716972560211474  0.8436971545593035  1.0000
  H   H2499     1.0  0.45386914820613067  0.742540203605249  0.8256073532031727  1.0000
  H   H2500     1.0  0.4765942466473739  0.7576198750529819  0.8261806534968782  1.0000
  C   C3171     1.0  0.578752028635462  0.9648623102601901  0.8360120278373528  1.0000
  C   C3172     1.0  0.5744333794620285  0.9865313151413584  0.8471260708729216  1.0000
  H   H2501     1.0  0.5883719976616228  0.9670212821533063  0.8199342202334986  1.0000
  H   H2502     1.0  0.5883544423706841  0.9562022315517341  0.8486282627817449  1.0000
  H   H2503     1.0  0.5672627605979967  0.985305110611903  0.8652322004019742  1.0000
  H   H2504     1.0  0.5628476657026175  0.9932994309394447  0.8350486656349554  1.0000
  C   C3173     1.0  0.44434769159204923  0.8069030224226338  0.6779304588448063  1.0000
  C   C3174     1.0  0.45223027722914516  0.7891050827751058  0.6935704899902075  1.0000
  H   H2505     1.0  0.43895267036335694  0.800543877587622  0.6604357286796105  1.0000
  H   H2506     1.0  0.4307863574301794  0.8139650969239173  0.6862990103156141  1.0000
  H   H2507     1.0  0.4395280267262605  0.7805798219821437  0.702378632160904  1.0000
  H   H2508     1.0  0.4608405512955203  0.7961126381964997  0.7085670096983386  1.0000
  C   C3175     1.0  0.5747684076491089  0.9757417519625003  0.5585159989971147  1.0000
  C   C3176     1.0  0.594427484994787  0.9702099247124456  0.57317398125333  1.0000
  H   H2509     1.0  0.5782522770873041  0.9809747718517517  0.540130294862809  1.0000
  H   H2510     1.0  0.5680026156132564  0.9896693692213725  0.5667818644026574  1.0000
  H   H2511     1.0  0.6029154395209154  0.9577208866431718  0.5637838304300363  1.0000
  H   H2512     1.0  0.5900239763443542  0.9642417689705347  0.5913352637220303  1.0000
  C   C3177     1.0  0.5404300674595931  0.8277924007264684  0.9740286308226385  1.0000
  C   C3178     1.0  0.533740047412435  0.8292828229884773  0.5008195341047547  1.0000
  H   H2513     1.0  0.5464441442968382  0.8121178749174547  0.9703058073964245  1.0000
  H   H2514     1.0  0.5543028508178013  0.8376933456231818  0.9715957330572618  1.0000
  H   H2515     1.0  0.5205837972479754  0.8185826156681107  0.5033086733546405  1.0000
  H   H2516     1.0  0.5451633604638515  0.8216889960224625  0.5125981469572773  1.0000
  C   C3179     1.0  0.5608584062281124  0.8475081460906059  0.7417712564559261  1.0000
  C   C3180     1.0  0.5673777521949779  0.8609598264510445  0.7205573313473876  1.0000
  H   H2517     1.0  0.5511493551304008  0.8347472077221645  0.7351438324910333  1.0000
  H   H2518     1.0  0.5746732106396987  0.8409534936077527  0.7500441974030683  1.0000
  H   H2519     1.0  0.5805785525484803  0.8533799207867948  0.7114933811342468  1.0000
  H   H2520     1.0  0.5736967410485074  0.8757408285723705  0.7274786624248762  1.0000
  C   C3181     1.0  0.2679835092863378  0.9610459552161067  0.5237720055329836  1.0000
  C   C3182     1.0  0.25772762738646054  0.9492638380132183  0.5444153517099701  1.0000
  H   H2521     1.0  0.26019651865922333  0.9762243226899636  0.5215397628704038  1.0000
  H   H2522     1.0  0.2637677050522563  0.9528097518055769  0.5065421364749969  1.0000
  H   H2523     1.0  0.26349748222624253  0.9533353049954807  0.5627146979519331  1.0000
  H   H2524     1.0  0.2607340948943599  0.932396436017504  0.5424626836526436  1.0000
  C   C3183     1.0  0.4420362192237791  0.07191479607903978  0.9599174609351664  1.0000
  C   C3184     1.0  0.4545857504887725  0.08012579048856254  0.937792786625868  1.0000
  H   H2525     1.0  0.4343457178066218  0.08522278776739642  0.968569578342386  1.0000
  H   H2526     1.0  0.4532237420226616  0.06580096534771114  0.9737710085387582  1.0000
  H   H2527     1.0  0.44400493947874436  0.08790871057346102  0.9252872204090584  1.0000
  H   H2528     1.0  0.46130765455700334  0.06731146690570441  0.9269363658741796  1.0000
  C   C3185     1.0  0.4231098311360792  0.9282278427239051  0.883702992459618  1.0000
  C   C3186     1.0  0.4305982933856031  0.9148356920294977  0.9052235243708027  1.0000
  H   H2529     1.0  0.41248933531404697  0.9186305301786322  0.8724401816263155  1.0000
  H   H2530     1.0  0.43677462520508725  0.9304841306399022  0.8718541816425597  1.0000
  H   H2531     1.0  0.43707398017085236  0.9253957593763634  0.9195977592664624  1.0000
  H   H2532     1.0  0.4164687552907978  0.9079896845149525  0.9137286882217245  1.0000
  C   C3187     1.0  0.43556184649188734  0.9441463940302028  0.540093284337519  1.0000
  C   C3188     1.0  0.4183102202572119  0.9327741514647779  0.5544054721760752  1.0000
  H   H2533     1.0  0.4354228336086093  0.9604050287257512  0.5462667850951805  1.0000
  H   H2534     1.0  0.4318781801277035  0.9441732213190388  0.5208293059241537  1.0000
  H   H2535     1.0  0.42214862635656003  0.9320198564825353  0.5737931818553607  1.0000
  H   H2536     1.0  0.4169349516596516  0.916449998449191  0.5478217714297847  1.0000
  C   C3189     1.0  0.2654836711150722  0.977374646446229  0.7397302348406771  1.0000
  C   C3190     1.0  0.2784689236853257  0.9577640986955622  0.7385255785273213  1.0000
  H   H2537     1.0  0.27090013717096495  0.9878265212797721  0.7256208791946407  1.0000
  H   H2538     1.0  0.26758333783306265  0.9855656814082067  0.7569655284805569  1.0000
  H   H2539     1.0  0.27396678145176323  0.9472477485719311  0.7534531570608929  1.0000
  H   H2540     1.0  0.2755060310751685  0.9490448172754816  0.7216005201729594  1.0000
  C   C3191     1.0  0.44549742529061653  0.09799835441722296  0.7177706565020345  1.0000
  C   C3192     1.0  0.453326246593767  0.11297806703404974  0.6986993505291486  1.0000
  H   H2541     1.0  0.4358897765683914  0.10573442036612862  0.7311543155737601  1.0000
  H   H2542     1.0  0.4581465476986752  0.09187635660195126  0.728300513795283  1.0000
  H   H2543     1.0  0.439929226334002  0.12266820785931921  0.6933219389135061  1.0000
  H   H2544     1.0  0.457546453762532  0.10499426794313066  0.6814749423378835  1.0000
  C   C3193     1.0  0.44495951697523745  0.9623301039934354  0.6318084502162008  1.0000
  C   C3194     1.0  0.45496520961944015  0.9550930170682619  0.6556793319074343  1.0000
  H   H2545     1.0  0.43598042552468225  0.9490520058888311  0.6245366076933203  1.0000
  H   H2546     1.0  0.45628183347736484  0.9656132620361733  0.6181080245897888  1.0000
  H   H2547     1.0  0.4427847780723733  0.9533539792545728  0.6694668411227639  1.0000
  H   H2548     1.0  0.4654544617331152  0.9676620463581487  0.6621311373013439  1.0000
  C   C3195     1.0  0.3419893787502471  0.054272127691092124  0.8288657308218279  1.0000
  C   C3196     1.0  0.3340678975992844  0.0431038885869494  0.8517505722927168  1.0000
  H   H2549     1.0  0.3306759109657141  0.06522704878235223  0.8220514399890502  1.0000
  H   H2550     1.0  0.35514943279308414  0.06470503533578024  0.8333977059283985  1.0000
  H   H2551     1.0  0.3204138132323508  0.03339724712757244  0.8462897055710284  1.0000
  H   H2552     1.0  0.32680405511362187  0.05532991725355172  0.8635485843495734  1.0000
  C   C3197     1.0  0.344804565415613  0.06985810079109973  0.594539214097612  1.0000
  C   C3198     1.0  0.35285140764223033  0.06951869062022806  0.5678321287698287  1.0000
  H   H2553     1.0  0.3296298019131742  0.06233579048268078  0.5960279806198105  1.0000
  H   H2554     1.0  0.34157815704088723  0.0855931782171733  0.601700932165341  1.0000
  H   H2555     1.0  0.36834333500477345  0.07650024973603355  0.5669623814255174  1.0000
  H   H2556     1.0  0.3442101856910325  0.08015517220475399  0.5566538615874335  1.0000
  C   C3199     1.0  0.44350398215237236  0.9445733307113736  0.7796671315664321  1.0000
  C   C3200     1.0  0.42374215841476287  0.931236751775646  0.7809461717786548  1.0000
  H   H2557     1.0  0.4422039475221401  0.9590062345224405  0.7909390136069135  1.0000
  H   H2558     1.0  0.4450870772883059  0.9501667735222767  0.7611437265071509  1.0000
  H   H2559     1.0  0.425350617162251  0.917035304252625  0.7685222464264553  1.0000
  H   H2560     1.0  0.4226750284239788  0.9243463679152142  0.7991901836568265  1.0000
