data_image0
_chemical_formula_sum              "C1600 H1280"
_cell_length_a       43.12094624181647
_cell_length_b       44.15814234370829
_cell_length_c       52.27722132018275
_cell_angle_alpha    90.41049999971504
_cell_angle_beta     91.14970000008871
_cell_angle_gamma    90.07670000032014

_space_group_name_H-M_alt    "P 1"
_space_group_IT_number       1

loop_
  _space_group_symop_operation_xyz
  'x, y, z'

loop_
  _atom_site_type_symbol
  _atom_site_label
  _atom_site_symmetry_multiplicity
  _atom_site_fract_x
  _atom_site_fract_y
  _atom_site_fract_z
  _atom_site_occupancy
  C   C1        1.0  0.5478508348790352  0.6857667838329604  0.15044768196871033  1.0000
  C   C2        1.0  0.5451811775753315  0.6584977133390832  0.16254939104964547  1.0000
  C   C3        1.0  0.5271535152720314  0.6560017848952088  0.18378793831952892  1.0000
  C   C4        1.0  0.5105043656587522  0.6806356007095153  0.19305143787466814  1.0000
  C   C5        1.0  0.5158920947288896  0.7081406337327241  0.18180000539698477  1.0000
  C   C6        1.0  0.5347569398011311  0.7108381852343572  0.16083620997279657  1.0000
  H   H1        1.0  0.5563446230172128  0.638127853601422  0.1553825006345677  1.0000
  H   H2        1.0  0.5228649147988305  0.6334111326232202  0.19027732435744316  1.0000
  H   H3        1.0  0.5032655274865823  0.7281244069602909  0.18670899432804489  1.0000
  H   H4        1.0  0.5359953940723546  0.732813050047687  0.15197412362954354  1.0000
  C   C7        1.0  0.5001728053345266  0.7197731869660305  0.24050927060882077  1.0000
  C   C8        1.0  0.4759902637781792  0.7021786890133394  0.2305619527413454  1.0000
  C   C9        1.0  0.44692919565382194  0.7067135897637016  0.24027775965248982  1.0000
  C   C10       1.0  0.4423462112162815  0.7291341459363918  0.2579644313906977  1.0000
  C   C11       1.0  0.466236757710712  0.7460831065725247  0.2670985909404818  1.0000
  C   C12       1.0  0.49522684948928475  0.7419307574872089  0.25816150270063226  1.0000
  C   C13       1.0  0.48160637459297045  0.6750749629463294  0.21127957738677394  1.0000
  C   C14       1.0  0.4847482962161419  0.6475658676555589  0.23083172997145004  1.0000
  C   C15       1.0  0.4598250500954688  0.6298741971719637  0.23686823465925247  1.0000
  C   C16       1.0  0.46238825030753905  0.6091576014591129  0.2562711487762111  1.0000
  C   C17       1.0  0.48927512649580396  0.6078924729084068  0.27072623369422927  1.0000
  C   C18       1.0  0.5146637406669724  0.6247913096002586  0.2641310414093307  1.0000
  C   C19       1.0  0.5121351097735857  0.644394656270303  0.24430528496717263  1.0000
  C   C20       1.0  0.43871505091150226  0.6951486793966767  0.18153386346288863  1.0000
  C   C21       1.0  0.4204053520310287  0.693445626230612  0.16024461338025506  1.0000
  C   C22       1.0  0.4159245635689992  0.6665159783969982  0.14677947696476268  1.0000
  C   C23       1.0  0.42964509785139443  0.6406452230981269  0.15714408854774037  1.0000
  C   C24       1.0  0.44999840002046076  0.6430268257032974  0.17727214855271078  1.0000
  C   C25       1.0  0.45533425675946954  0.6705397143364984  0.189819085729003  1.0000
  C   C26       1.0  0.3979938472269672  0.666885323967823  0.1194074200030605  1.0000
  C   C27       1.0  0.3192577074422822  0.7304400783711297  0.12328398486770598  1.0000
  C   C28       1.0  0.3347222861673054  0.7266204368762779  0.10075911680491938  1.0000
  C   C29       1.0  0.35817203682412274  0.7059077732970024  0.09828022758985858  1.0000
  C   C30       1.0  0.36886821532879743  0.6901586816339731  0.11969288640541235  1.0000
  C   C31       1.0  0.35251057337527086  0.6945202031876796  0.14255928096162931  1.0000
  C   C32       1.0  0.3285538460528614  0.7142925043376157  0.14417469170898636  1.0000
  C   C33       1.0  0.3848816095283161  0.6332696865487797  0.11328213756010305  1.0000
  C   C34       1.0  0.40470479305837875  0.6109013733642704  0.10385983296880294  1.0000
  C   C35       1.0  0.3943356889489792  0.5820429111981223  0.09897896974896647  1.0000
  C   C36       1.0  0.36492797123598264  0.573991409569551  0.10525903926933858  1.0000
  C   C37       1.0  0.3459699397187146  0.5951481973370945  0.11628087410437969  1.0000
  C   C38       1.0  0.3556250920739651  0.6239918677202098  0.1202223003030716  1.0000
  C   C39       1.0  0.4166018445627568  0.6711001410813864  0.07264086750462988  1.0000
  C   C40       1.0  0.43508220475795006  0.6814070296831943  0.05384198651918922  1.0000
  C   C41       1.0  0.46044475204648444  0.6988541412430781  0.0597772769128602  1.0000
  C   C42       1.0  0.4686784559442139  0.704666495941145  0.08494730115025437  1.0000
  C   C43       1.0  0.44928314188337665  0.6946941704802558  0.10367615485468913  1.0000
  C   C44       1.0  0.4223393713403154  0.6780827635463625  0.09828118424670292  1.0000
  H   H5        1.0  0.52419828078162  0.7148329187953902  0.2347827227385854  1.0000
  H   H6        1.0  0.42676647260327405  0.6929336981572842  0.23444215290199935  1.0000
  H   H7        1.0  0.4196005124938639  0.7324878281377092  0.26672166814381076  1.0000
  H   H8        1.0  0.5142249735349775  0.7547412878216925  0.26584537047439283  1.0000
  H   H9        1.0  0.43772922200402237  0.6328294681416365  0.22755613693642063  1.0000
  H   H10       1.0  0.44195310453455233  0.5957799114034398  0.2612361977983497  1.0000
  H   H11       1.0  0.5352934354733103  0.6234722912417752  0.2757142424806321  1.0000
  H   H12       1.0  0.5315403111074921  0.6589148865022785  0.24107561146067166  1.0000
  H   H13       1.0  0.4411253718244918  0.7176235784793734  0.1896438261951194  1.0000
  H   H14       1.0  0.41003875933260503  0.7151955059914545  0.15394962001311122  1.0000
  H   H15       1.0  0.42954069996319566  0.6185316052830885  0.14837843321439706  1.0000
  H   H16       1.0  0.4631080000172775  0.6233986370556786  0.18247617045456618  1.0000
  H   H17       1.0  0.3282961703785635  0.739952973932795  0.08437254171817328  1.0000
  H   H18       1.0  0.3693873171452629  0.7042381769712731  0.08065478188968866  1.0000
  H   H19       1.0  0.3577849908858235  0.6821874992008186  0.15987878780297843  1.0000
  H   H20       1.0  0.31744326060619305  0.7163300581135799  0.16246061329449046  1.0000
  H   H21       1.0  0.42916234532371306  0.6167334572261818  0.10022568494851389  1.0000
  H   H22       1.0  0.41043683652219604  0.5658226742350615  0.09111907711584685  1.0000
  H   H23       1.0  0.3228056858810024  0.5891322518091563  0.12199249812784334  1.0000
  H   H24       1.0  0.33877836805286315  0.6390311317965375  0.12848245815986423  1.0000
  H   H25       1.0  0.39547836374951945  0.6590835860270039  0.06591576122026957  1.0000
  H   H26       1.0  0.42969832378325135  0.6753695307928537  0.034557411177525754  1.0000
  H   H27       1.0  0.48810579222757877  0.7197903123268988  0.08983907025811633  1.0000
  H   H28       1.0  0.45545140544711804  0.7012615172918653  0.12283206017443848  1.0000
  C   C45       1.0  0.3020784653335836  0.7518236789195301  0.9283455416912219  1.0000
  C   C46       1.0  0.3268471812864875  0.7679746409169782  0.9371123450127783  1.0000
  C   C47       1.0  0.3552985071078865  0.7539352367901939  0.9404281176352702  1.0000
  C   C48       1.0  0.35971793234347194  0.7246194290381737  0.9328992282702931  1.0000
  C   C49       1.0  0.33500222552246217  0.709797248881513  0.9206119277615555  1.0000
  C   C50       1.0  0.30639242378451886  0.7229632185930907  0.9195060324494954  1.0000
  H   H29       1.0  0.3241658816754946  0.7912297882622875  0.9435047260466763  1.0000
  H   H30       1.0  0.3743939614892285  0.7665622686268118  0.9491681345651851  1.0000
  H   H31       1.0  0.3385942241421244  0.6876747235042536  0.9134599611932495  1.0000
  H   H32       1.0  0.28738775417437634  0.7105513391000753  0.9107679288332691  1.0000
  C   C51       1.0  0.36713081854396695  0.6648521778454092  0.9632003771580038  1.0000
  C   C52       1.0  0.38995947915829904  0.6735903910986222  0.94687598476614  1.0000
  C   C53       1.0  0.4140000731851115  0.6532918981908046  0.9433038281093644  1.0000
  C   C54       1.0  0.414705501703418  0.6252913340808155  0.954337908152013  1.0000
  C   C55       1.0  0.39140895691668304  0.616819430642844  0.9702892043745832  1.0000
  C   C56       1.0  0.36726267917294375  0.636336721044147  0.9741368782025296  1.0000
  C   C57       1.0  0.3921186094953648  0.7084289230613824  0.9375753669254402  1.0000
  C   C58       1.0  0.41205597991537873  0.7213442362230525  0.9615568406994232  1.0000
  C   C59       1.0  0.44418182793901145  0.719704282861784  0.9609790199654401  1.0000
  C   C60       1.0  0.46264063523098337  0.726648870743728  0.9816198480389781  1.0000
  C   C61       1.0  0.4488384169562019  0.7356011866109746  0.003743494221247312  1.0000
  C   C62       1.0  0.41705893567160307  0.7370670093299688  0.0054138170714697065  1.0000
  C   C63       1.0  0.3993334538486797  0.7288655413940285  0.9847691623705542  1.0000
  C   C64       1.0  0.41238957792021874  0.6937215996524749  0.893027684311778  1.0000
  C   C65       1.0  0.4338352928055996  0.6979594410722595  0.8739691666587829  1.0000
  C   C66       1.0  0.45017548405536245  0.7252641268331744  0.8724346890804572  1.0000
  C   C67       1.0  0.441165898061856  0.7484865623497859  0.8882845796775269  1.0000
  C   C68       1.0  0.4209262925971382  0.7437265620808634  0.9071900322354274  1.0000
  C   C69       1.0  0.4084606197269874  0.7154317742140885  0.9113285297440539  1.0000
  C   C70       1.0  0.4825683024467568  0.7275908105708019  0.8579164648107124  1.0000
  C   C71       1.0  0.5351452792868099  0.731303931825283  0.9307046574693709  1.0000
  C   C72       1.0  0.5254296708605163  0.7039566915845131  0.9208568319137073  1.0000
  C   C73       1.0  0.5114301200283992  0.7019132183616092  0.8973536865618958  1.0000
  C   C74       1.0  0.5071486826477871  0.7273164341915331  0.8820797033851203  1.0000
  C   C75       1.0  0.517678903594451  0.7545736927584397  0.89253022275272  1.0000
  C   C76       1.0  0.5323145751184363  0.7568271049971114  0.9159549222432953  1.0000
  C   C77       1.0  0.4883561185455608  0.7568755205447685  0.8405129634984299  1.0000
  C   C78       1.0  0.46385272539452976  0.7759499615727288  0.8330414735441135  1.0000
  C   C79       1.0  0.4698678300929048  0.8008092681740094  0.817985608127848  1.0000
  C   C80       1.0  0.49871353139173846  0.8062890675944125  0.8091480121998101  1.0000
  C   C81       1.0  0.5223343524972818  0.786756252438149  0.8154466408629625  1.0000
  C   C82       1.0  0.5176601716662619  0.7627697244279641  0.8311415530512489  1.0000
  C   C83       1.0  0.5095281777931601  0.6809843559022597  0.8370288192713338  1.0000
  C   C84       1.0  0.5072393208198657  0.655090859119621  0.8223785763570698  1.0000
  C   C85       1.0  0.48268829356538473  0.6512284543212083  0.8054706232901568  1.0000
  C   C86       1.0  0.46119464552823836  0.6738313806929057  0.8025509066012229  1.0000
  C   C87       1.0  0.46217460183918463  0.698836309590237  0.8181654596145844  1.0000
  C   C88       1.0  0.48542259763554685  0.7019483504926677  0.8368432278435314  1.0000
  H   H33       1.0  0.34948028648279045  0.6810738684181438  0.9685710486821437  1.0000
  H   H34       1.0  0.432596652125529  0.659801731973868  0.9314986826501754  1.0000
  H   H35       1.0  0.4346773761210275  0.6115772932200724  0.9495871502630071  1.0000
  H   H36       1.0  0.35016067878035456  0.6307134957969204  0.987939523152706  1.0000
  H   H37       1.0  0.45593992499216984  0.712008823023244  0.944176299151405  1.0000
  H   H38       1.0  0.4872639817129087  0.7223066428535645  0.9807033707820978  1.0000
  H   H39       1.0  0.4053880050783174  0.7426530591991575  0.02315406159296085  1.0000
  H   H40       1.0  0.3753470685588283  0.7261729066092306  0.9879567429759042  1.0000
  H   H41       1.0  0.4003022665855835  0.6724105367594805  0.8928784458440607  1.0000
  H   H42       1.0  0.43930848756591334  0.6786795695775384  0.8620989685341786  1.0000
  H   H43       1.0  0.4520888659359786  0.7705812067507677  0.8879057435671673  1.0000
  H   H44       1.0  0.41805769836752027  0.7622576986027989  0.9210213768909342  1.0000
  H   H45       1.0  0.5267615408970534  0.6845540409297499  0.9331345658540015  1.0000
  H   H46       1.0  0.5019428850166954  0.6804181139673431  0.8907489277085539  1.0000
  H   H47       1.0  0.5129152680706396  0.7756150545380103  0.8836103543360686  1.0000
  H   H48       1.0  0.5389831399963271  0.7783949679318136  0.9236579231539427  1.0000
  H   H49       1.0  0.44079789660208596  0.7709283151938335  0.838238033522583  1.0000
  H   H50       1.0  0.4524808881705846  0.8179497272114067  0.814501463900752  1.0000
  H   H51       1.0  0.5450056650046547  0.7916163341350668  0.808030637005618  1.0000
  H   H52       1.0  0.5366372262060025  0.7474432175330425  0.8351595117974883  1.0000
  H   H53       1.0  0.528256759686804  0.6839862866685562  0.8504870677575469  1.0000
  H   H54       1.0  0.5243971864663057  0.6371193618526767  0.8250725220307388  1.0000
  H   H55       1.0  0.4444472198019043  0.6722915307638861  0.7871315115841072  1.0000
  H   H56       1.0  0.4438707212126424  0.7156508460689555  0.8152342630435184  1.0000
  C   C89       1.0  0.6948729942549509  0.47267120082513214  0.1767901848345309  1.0000
  C   C90       1.0  0.6743854136180352  0.4870937334027518  0.19214261387254258  1.0000
  C   C91       1.0  0.681573243643482  0.514860231137031  0.20282464419647314  1.0000
  C   C92       1.0  0.710530270925468  0.526847638991586  0.20000824644672824  1.0000
  C   C93       1.0  0.7302197719446196  0.5124671484313978  0.1832101175855459  1.0000
  C   C94       1.0  0.72257600837487  0.48575333197897985  0.17222061775184358  1.0000
  H   H57       1.0  0.6514397654826828  0.47868796261232466  0.19458208882561645  1.0000
  H   H58       1.0  0.6641671664764407  0.5268674308387369  0.21323881060398778  1.0000
  H   H59       1.0  0.7525925977314567  0.5223218168785814  0.17859099567832162  1.0000
  H   H60       1.0  0.7372314163543565  0.4744922743911336  0.15927475467146043  1.0000
  C   C95       1.0  0.7600796897761231  0.5217712671561777  0.2392082173005147  1.0000
  C   C96       1.0  0.7562320130399025  0.5496822591439198  0.22722896029565542  1.0000
  C   C97       1.0  0.7778571353170594  0.5719047367522164  0.23388537861859193  1.0000
  C   C98       1.0  0.8028279264490413  0.565652147848561  0.24983858815485077  1.0000
  C   C99       1.0  0.8060444457623585  0.5374769663533532  0.2605780178894419  1.0000
  C   C100      1.0  0.7847180889381076  0.5154745922415704  0.255037061447009  1.0000
  C   C101      1.0  0.7241251711170942  0.5574886961853852  0.21317758456594985  1.0000
  C   C102      1.0  0.7033502885593244  0.5704636895682379  0.23539115649158732  1.0000
  C   C103      1.0  0.6960609411019768  0.600995083397618  0.2386055234885788  1.0000
  C   C104      1.0  0.6764245022572518  0.6107890173288174  0.2571761461509593  1.0000
  C   C105      1.0  0.665360365575881  0.5905538050362709  0.27433665662477863  1.0000
  C   C106      1.0  0.6750601137088588  0.5612948951847009  0.27375692257710693  1.0000
  C   C107      1.0  0.6935729929983762  0.5510814753239415  0.25459125935754534  1.0000
  C   C108      1.0  0.7487803947652015  0.5919860463601233  0.1776339561712412  1.0000
  C   C109      1.0  0.7448252576793883  0.6132033820693337  0.15932622280968606  1.0000
  C   C110      1.0  0.7155555941982205  0.6229571026865603  0.1508297707123408  1.0000
  C   C111      1.0  0.6907251878299417  0.6065483053712107  0.15965722607782865  1.0000
  C   C112      1.0  0.6943215099832115  0.5865519030474549  0.17906645412995992  1.0000
  C   C113      1.0  0.7229021195849643  0.5798119955975062  0.18938304153935162  1.0000
  C   C114      1.0  0.7105487470496179  0.6461964974621774  0.12797428204414937  1.0000
  C   C115      1.0  0.7726796716653918  0.7242475038195366  0.1295286580848374  1.0000
  C   C116      1.0  0.7610437482018538  0.7131600569805748  0.10665135764059493  1.0000
  C   C117      1.0  0.7399844724869502  0.6896716687532591  0.1066442783799468  1.0000
  C   C118      1.0  0.7330135376458997  0.674824760370931  0.12922386721422982  1.0000
  C   C119      1.0  0.7441790544389244  0.6868967878980542  0.15177456501181366  1.0000
  C   C120      1.0  0.7639530375299298  0.7115523163597419  0.15188458054891307  1.0000
  C   C121      1.0  0.6777967177240253  0.6629506259778473  0.12645951159681712  1.0000
  C   C122      1.0  0.6642830968009578  0.671199912000543  0.10271356673791152  1.0000
  C   C123      1.0  0.6360346221921404  0.6845849450186062  0.10100497761391546  1.0000
  C   C124      1.0  0.620125314224653  0.691365264919716  0.12309877610264122  1.0000
  C   C125      1.0  0.6337926366027707  0.6854277123611047  0.1462642215883997  1.0000
  C   C126      1.0  0.6619710984569335  0.671715128247969  0.14806847639683005  1.0000
  C   C127      1.0  0.745819572599069  0.6224182072893425  0.09338367519777489  1.0000
  C   C128      1.0  0.7493291161980552  0.6051102444289722  0.07160710411863316  1.0000
  C   C129      1.0  0.7249469675090486  0.5879119711592155  0.06191655294817934  1.0000
  C   C130      1.0  0.6963812030467978  0.5890568235129383  0.07349937135674302  1.0000
  C   C131      1.0  0.6923244832299437  0.607776574310361  0.09405735294756103  1.0000
  C   C132      1.0  0.7169006898851207  0.6244384777816337  0.10431960224819405  1.0000
  H   H61       1.0  0.7424516938216625  0.5046588053969885  0.23746901515749969  1.0000
  H   H62       1.0  0.774732233046057  0.5950975354932134  0.22843243460583854  1.0000
  H   H63       1.0  0.8163403677396218  0.5842306398319281  0.25619844285604104  1.0000
  H   H64       1.0  0.7858962564494709  0.4940225236548632  0.26492506659013515  1.0000
  H   H65       1.0  0.7036752242784003  0.6181538196833748  0.2255643773864991  1.0000
  H   H66       1.0  0.6716499932631914  0.63452212890293  0.2598605252561849  1.0000
  H   H67       1.0  0.6688112412896936  0.5455002709234544  0.28822540069094593  1.0000
  H   H68       1.0  0.701179816713454  0.5282504303799977  0.255986065036597  1.0000
  H   H69       1.0  0.7715808559043055  0.5834743974794934  0.18200090333429672  1.0000
  H   H70       1.0  0.766472949638466  0.6216080911668842  0.1509101298872656  1.0000
  H   H71       1.0  0.6674451067555777  0.6095562524374563  0.1509464828473506  1.0000
  H   H72       1.0  0.6734802939106598  0.5767961580654978  0.1870591307330743  1.0000
  H   H73       1.0  0.7675774134477671  0.7233816559809312  0.08847430360397703  1.0000
  H   H74       1.0  0.7311477335121646  0.6817604073226555  0.0881674080883119  1.0000
  H   H75       1.0  0.7367865255357273  0.6768494950768746  0.16914573132275726  1.0000
  H   H76       1.0  0.7730820798786365  0.7209413410448408  0.16971035019228833  1.0000
  H   H77       1.0  0.6758798620259667  0.6654759742348405  0.0852689291813224  1.0000
  H   H78       1.0  0.625917115418144  0.6886847613255257  0.0824919456935644  1.0000
  H   H79       1.0  0.6226051931431117  0.6922399927105596  0.16360018292747153  1.0000
  H   H80       1.0  0.6731196347436833  0.668568725526419  0.16658399562497636  1.0000
  H   H81       1.0  0.7659684849229855  0.6331365057282787  0.10216081041325031  1.0000
  H   H82       1.0  0.7719886401648421  0.60284504823836  0.06382202205074114  1.0000
  H   H83       1.0  0.6769971712808919  0.5766663337155072  0.06594369560012438  1.0000
  H   H84       1.0  0.6700813845730715  0.60906443650531  0.10328622152493505  1.0000
  C   C133      1.0  0.7490364398252851  0.7452122558158614  0.9348680280559504  1.0000
  C   C134      1.0  0.7563539822034792  0.7224711208567145  0.9513454855429091  1.0000
  C   C135      1.0  0.7354231983224289  0.6999772019818152  0.9558972588082916  1.0000
  C   C136      1.0  0.7062225725500009  0.7001686329053345  0.9448670053930204  1.0000
  C   C137      1.0  0.6990696337327517  0.7238242061445721  0.9283359751227784  1.0000
  C   C138      1.0  0.7205638223868157  0.7461872682473677  0.9233097000626019  1.0000
  H   H85       1.0  0.7795019777043224  0.7199959437504002  0.9601256820602864  1.0000
  H   H86       1.0  0.743586120754992  0.6806728110251765  0.966416657468684  1.0000
  H   H87       1.0  0.6772285717581548  0.7248433844859785  0.917975381498547  1.0000
  H   H88       1.0  0.7146017788323821  0.7645300926946152  0.9097022131086714  1.0000
  C   C139      1.0  0.6438257003967541  0.7090743522858923  0.9679013888911038  1.0000
  C   C140      1.0  0.6481174581377149  0.6824686979790897  0.9539227190815683  1.0000
  C   C141      1.0  0.6225020768616992  0.6637369581488272  0.9511082346455121  1.0000
  C   C142      1.0  0.5933187748154882  0.6731285132817454  0.9575274020710516  1.0000
  C   C143      1.0  0.589473800741266  0.7000466837225168  0.9696444176614963  1.0000
  C   C144      1.0  0.6149878094628676  0.7182233670742317  0.9750916217331836  1.0000
  C   C145      1.0  0.6821390066632436  0.6725786921787972  0.9450812965261531  1.0000
  C   C146      1.0  0.6904493310539465  0.6457693881775087  0.9643713251354793  1.0000
  C   C147      1.0  0.684175011348956  0.6156380503183777  0.9573418106432492  1.0000
  C   C148      1.0  0.6911459591517554  0.5921848245392065  0.973434692078782  1.0000
  C   C149      1.0  0.7021171524177775  0.5982138439952079  0.9982522839347203  1.0000
  C   C150      1.0  0.7050728542965534  0.6275127074647587  0.006184882488009968  1.0000
  C   C151      1.0  0.6998170703840669  0.6507969534801824  0.9893955548697957  1.0000
  C   C152      1.0  0.6606315345170164  0.6558740670534532  0.8994774647563365  1.0000
  C   C153      1.0  0.6633326738429944  0.6390107233071122  0.8775241034923603  1.0000
  C   C154      1.0  0.6918445675699462  0.6271209514747217  0.8705290286465265  1.0000
  C   C155      1.0  0.7172320454404899  0.6345230109580513  0.8855868073764805  1.0000
  C   C156      1.0  0.7140672327418311  0.6488660114258684  0.9083552402718368  1.0000
  C   C157      1.0  0.6855238795460608  0.6600798587880282  0.9162878388251264  1.0000
  C   C158      1.0  0.6939637303148367  0.6028748661572635  0.8477567691237929  1.0000
  C   C159      1.0  0.6914794174079554  0.52076408640196  0.8946884405935571  1.0000
  C   C160      1.0  0.6646067756698638  0.5317722097043807  0.8835108620242569  1.0000
  C   C161      1.0  0.6659799669454344  0.5581364401438234  0.8699301614619679  1.0000
  C   C162      1.0  0.6936389926893913  0.5728473384565465  0.8648904932059707  1.0000
  C   C163      1.0  0.7198110370681705  0.5618407932756119  0.8775834162167095  1.0000
  C   C164      1.0  0.7185077168943821  0.5360718389756495  0.8921915662298225  1.0000
  C   C165      1.0  0.7244320647251198  0.6051940250433289  0.8318226927244208  1.0000
  C   C166      1.0  0.737993914738731  0.6326581493328918  0.826938002877207  1.0000
  C   C167      1.0  0.763444433083712  0.6343363148245112  0.8112564838847415  1.0000
  C   C168      1.0  0.7767154259589512  0.6083632242563681  0.8016210361485218  1.0000
  C   C169      1.0  0.7653373327151973  0.5805556602949181  0.8092570710800653  1.0000
  C   C170      1.0  0.7371985816843354  0.5794553942003012  0.8212650277902548  1.0000
  C   C171      1.0  0.6554981503329969  0.5817999740018146  0.8128387943052843  1.0000
  C   C172      1.0  0.6320503135482984  0.5849108462038437  0.7949378314339437  1.0000
  C   C173      1.0  0.6230022854932239  0.6132222413076542  0.7868980873140876  1.0000
  C   C174      1.0  0.637193305906542  0.6384806483602704  0.7977063963414714  1.0000
  C   C175      1.0  0.6597031888378508  0.6350455961605799  0.8166309820362588  1.0000
  C   C176      1.0  0.668478848534789  0.6063933707564195  0.825600596608816  1.0000
  H   H89       1.0  0.662905122890312  0.7239546725359538  0.9731859612992529  1.0000
  H   H90       1.0  0.6246606728816909  0.6420116691574754  0.9408739197247339  1.0000
  H   H91       1.0  0.5743119275523942  0.6585191115391626  0.9532090530756887  1.0000
  H   H92       1.0  0.613148846957673  0.7393491594678129  0.9848667413686774  1.0000
  H   H93       1.0  0.6749371587986116  0.6086587407998472  0.939006525564577  1.0000
  H   H94       1.0  0.6848232670190038  0.5693577987372155  0.967055704240705  1.0000
  H   H95       1.0  0.7132942921044347  0.6327912912486906  0.02611395786935722  1.0000
  H   H96       1.0  0.7021664170586365  0.6736751196909745  0.9959295211166562  1.0000
  H   H97       1.0  0.6389977607030806  0.6670598662921841  0.9027855841240736  1.0000
  H   H98       1.0  0.642271895721303  0.6321440611768736  0.8673663211191295  1.0000
  H   H99       1.0  0.7392521472185603  0.625194062692829  0.8814674430047409  1.0000
  H   H100      1.0  0.735084132066533  0.6518683354545493  0.9202637046702148  1.0000
  H   H101      1.0  0.6421909712993042  0.5211343672033886  0.8863119532644923  1.0000
  H   H102      1.0  0.6448584074906676  0.5680193177926538  0.8622405537471414  1.0000
  H   H103      1.0  0.7415280706059948  0.573640448048335  0.8774513975721903  1.0000
  H   H104      1.0  0.7400525502541061  0.5282364420005679  0.9012453666046819  1.0000
  H   H105      1.0  0.7288111729250398  0.653518497948146  0.8353259700884038  1.0000
  H   H106      1.0  0.7735034509079289  0.6565490816862289  0.8071964322373512  1.0000
  H   H107      1.0  0.776365861125538  0.5594883671749574  0.8031612536679136  1.0000
  H   H108      1.0  0.7260323994135751  0.5578391305857016  0.8227727189769388  1.0000
  H   H109      1.0  0.6643884794777442  0.5591973551915101  0.8171246169679396  1.0000
  H   H110      1.0  0.6219032416723503  0.5648373547794133  0.7853425632851865  1.0000
  H   H111      1.0  0.6318591367807015  0.661010819285955  0.791560832773414  1.0000
  H   H112      1.0  0.6701583150939717  0.6542153055570478  0.8254035252988814  1.0000
  C   C177      1.0  0.508917604161189  0.3544908724424094  0.14801184231164496  1.0000
  C   C178      1.0  0.5307976232121502  0.3740826980925965  0.15795437689489863  1.0000
  C   C179      1.0  0.5434642139786042  0.3694726254183793  0.18223432760431635  1.0000
  C   C180      1.0  0.5346375858725723  0.3445816417796342  0.19649540251430184  1.0000
  C   C181      1.0  0.5115598516655577  0.32604017456683015  0.1859725598892699  1.0000
  C   C182      1.0  0.4990437360927463  0.3308897860304011  0.16243095693231585  1.0000
  H   H113      1.0  0.5386831705052736  0.39313651524225435  0.1469964467370596  1.0000
  H   H114      1.0  0.5625545134931836  0.3831275378761006  0.18908379927844118  1.0000
  H   H115      1.0  0.5057095163603236  0.30490079687738825  0.19481742640932476  1.0000
  H   H116      1.0  0.4819594629364091  0.31520435440766137  0.15541158300263574  1.0000
  C   C183      1.0  0.5115329127395001  0.3122955213084279  0.24598708769952707  1.0000
  C   C184      1.0  0.5408761926482865  0.30726368208164384  0.2358886180506455  1.0000
  C   C185      1.0  0.5550938748973374  0.28017872052327286  0.2416859585273623  1.0000
  C   C186      1.0  0.5391442341032345  0.25790406356357654  0.2547022315514891  1.0000
  C   C187      1.0  0.5096257574649748  0.2629422098175542  0.2634135487760737  1.0000
  C   C188      1.0  0.49611994056394637  0.29000211273511983  0.25866279088706784  1.0000
  C   C189      1.0  0.557841034840652  0.33207268134577095  0.21917964960735595  1.0000
  C   C190      1.0  0.5656826037231751  0.357257400641634  0.24048439753086787  1.0000
  C   C191      1.0  0.5893249596430189  0.35257829226833526  0.25798547784127324  1.0000
  C   C192      1.0  0.5990818617883689  0.3746839416579867  0.2745930406590625  1.0000
  C   C193      1.0  0.5846530386012573  0.40210291340046234  0.274778632086865  1.0000
  C   C194      1.0  0.5578508687229141  0.40622727440381806  0.260212574974903  1.0000
  C   C195      1.0  0.5492921733658707  0.38394122495160016  0.24263113548957288  1.0000
  C   C196      1.0  0.5800590676009206  0.298871629009507  0.1835482001143366  1.0000
  C   C197      1.0  0.5968603322627277  0.29676855212481074  0.1618219491852073  1.0000
  C   C198      1.0  0.6214569906730116  0.31601077264525756  0.15809787542155004  1.0000
  C   C199      1.0  0.6326124436464287  0.3320421643361383  0.179153701234164  1.0000
  C   C200      1.0  0.6147929700308983  0.33492819357766507  0.20054397427956017  1.0000
  C   C201      1.0  0.5864161320306531  0.32056032886643876  0.20198661280082894  1.0000
  C   C202      1.0  0.6370273080431792  0.3199266983905364  0.13128508005105058  1.0000
  C   C203      1.0  0.7152520150054589  0.25792904184857196  0.13527797438796815  1.0000
  C   C204      1.0  0.6869019736838657  0.248478147854693  0.1266768640318518  1.0000
  C   C205      1.0  0.6621150188885665  0.26766155567812683  0.12641856668387927  1.0000
  C   C206      1.0  0.6656713540615675  0.29777899534116586  0.13420958002420622  1.0000
  C   C207      1.0  0.6938580443580812  0.3062317090122508  0.14473184865513158  1.0000
  C   C208      1.0  0.7183129572336358  0.2860682285047459  0.1453142613419674  1.0000
  C   C209      1.0  0.6439266144195824  0.3544426583479652  0.12638891032170466  1.0000
  C   C210      1.0  0.6242117385013994  0.37703674064724535  0.13519818920714996  1.0000
  C   C211      1.0  0.6340019683698577  0.4063799138786531  0.1350355575436117  1.0000
  C   C212      1.0  0.6622997600030505  0.4143766860303952  0.1263169697270101  1.0000
  C   C213      1.0  0.6796062591098685  0.39276506734759203  0.11320847498308867  1.0000
  C   C214      1.0  0.670906080103728  0.36308662774895917  0.11415652191583228  1.0000
  C   C215      1.0  0.6288623375488869  0.30733045769167977  0.08386838356120466  1.0000
  C   C216      1.0  0.6125683174166225  0.30927708997618875  0.06115122747270518  1.0000
  C   C217      1.0  0.5821257365792804  0.31824857398756123  0.061586697668249986  1.0000
  C   C218      1.0  0.5671441489316743  0.3220171854535862  0.08423554845806339  1.0000
  C   C219      1.0  0.5839677566072946  0.3214271574048634  0.10643419653692915  1.0000
  C   C220      1.0  0.6155265234918841  0.3146316630925026  0.10676366915412078  1.0000
  H   H117      1.0  0.49927864686838974  0.33340411261634645  0.24230395884880768  1.0000
  H   H118      1.0  0.5782624562045435  0.274814941048763  0.23622153463247678  1.0000
  H   H119      1.0  0.5503437135599151  0.23647709393219626  0.25822846867973626  1.0000
  H   H120      1.0  0.4729281623788299  0.29470677977399845  0.26597547580522346  1.0000
  H   H121      1.0  0.6015624192009845  0.33149103362193383  0.2572584186395728  1.0000
  H   H122      1.0  0.6201148060242846  0.36962308752806555  0.28609014261437304  1.0000
  H   H123      1.0  0.543889312512217  0.4260353309463879  0.26230382683663617  1.0000
  H   H124      1.0  0.5277158271899162  0.38709676029366236  0.23130623176624399  1.0000
  H   H125      1.0  0.5595418327878495  0.28524271775069454  0.18400873471920318  1.0000
  H   H126      1.0  0.5880859354184738  0.28200500796785194  0.14658010967840165  1.0000
  H   H127      1.0  0.6542139590868352  0.34471487251946314  0.17889502122345372  1.0000
  H   H128      1.0  0.6229117633366995  0.35050278427149206  0.21529179619194722  1.0000
  H   H129      1.0  0.6847566594429718  0.22629870555450404  0.11781362970038554  1.0000
  H   H130      1.0  0.639654822828121  0.2596685418554476  0.11961884116566023  1.0000
  H   H131      1.0  0.6961614305343496  0.3288208047091119  0.15215741908091962  1.0000
  H   H132      1.0  0.7406131446268774  0.2923570364392731  0.1538309945644127  1.0000
  H   H133      1.0  0.6026594407278985  0.37177196162766574  0.14402220060799817  1.0000
  H   H134      1.0  0.6196604364686297  0.42306064179656694  0.1448489434528791  1.0000
  H   H135      1.0  0.7018055464181587  0.3988768979904372  0.10519360394118553  1.0000
  H   H136      1.0  0.6867998872439125  0.34654028617462435  0.1065621972227022  1.0000
  H   H137      1.0  0.6527971678077368  0.3007487281854492  0.08270681082080376  1.0000
  H   H138      1.0  0.6242016271164833  0.30685878372170444  0.0428299095839604  1.0000
  H   H139      1.0  0.5435321093794148  0.3298611231398772  0.08496279899113272  1.0000
  H   H140      1.0  0.5724293791098513  0.3294535230649431  0.12300330174957584  1.0000
  C   C221      1.0  0.7495410590454015  0.3042827641583498  0.9531956598798679  1.0000
  C   C222      1.0  0.7228579309753629  0.2971606754408581  0.9657029914628044  1.0000
  C   C223      1.0  0.697048260324251  0.3147006951958961  0.9628674605761725  1.0000
  C   C224      1.0  0.6976229528909778  0.3413485854166372  0.9496215899094036  1.0000
  C   C225      1.0  0.7244459242354602  0.3481792273263455  0.9363967656932101  1.0000
  C   C226      1.0  0.7498969591705761  0.3300842542433922  0.9381531876594232  1.0000
  H   H141      1.0  0.7217229724468436  0.2773844333590378  0.9774564774523987  1.0000
  H   H142      1.0  0.6767924395520118  0.3074712779329073  0.9731419550844133  1.0000
  H   H143      1.0  0.7252973962278157  0.36780118446566507  0.9243428894544921  1.0000
  H   H144      1.0  0.7704446092618548  0.33675428557335696  0.927608915921078  1.0000
  C   C227      1.0  0.7000008615314696  0.41193051626003424  0.9588361086341124  1.0000
  C   C228      1.0  0.6722281754409637  0.3982242030708915  0.9504711011871798  1.0000
  C   C229      1.0  0.6477463147136221  0.41792932138102634  0.9449932840964735  1.0000
  C   C230      1.0  0.6518034046612302  0.4485976067343946  0.9440710668985272  1.0000
  C   C231      1.0  0.6804704710701956  0.46073218543542405  0.9489653233141844  1.0000
  C   C232      1.0  0.7042051736299039  0.44249554344188213  0.9574891357972779  1.0000
  C   C233      1.0  0.667929989656771  0.361965743621735  0.94646844895045  1.0000
  C   C234      1.0  0.6425890562898482  0.35609982136996693  0.9679396551648776  1.0000
  C   C235      1.0  0.6116416800167723  0.3519556463846744  0.9620906552185663  1.0000
  C   C236      1.0  0.5898238022713166  0.3514104724850027  0.9805139527269179  1.0000
  C   C237      1.0  0.5982925537857037  0.35596832248589666  0.0056931608700179215  1.0000
  C   C238      1.0  0.6289690247692611  0.3593123471066735  0.011986049592104253  1.0000
  C   C239      1.0  0.6509262298380744  0.35981133368446994  0.9931915692281474  1.0000
  C   C240      1.0  0.6589506034758655  0.3734790871623359  0.8983428697389461  1.0000
  C   C241      1.0  0.6396059688163198  0.3716938547828075  0.8775087969828509  1.0000
  C   C242      1.0  0.618895173356318  0.34804164984633934  0.8744857613547279  1.0000
  C   C243      1.0  0.6223826487503271  0.32406209324063245  0.8912655224044987  1.0000
  C   C244      1.0  0.6417243217405996  0.32551436572647047  0.9120919419058394  1.0000
  C   C245      1.0  0.6569940143751026  0.3523279182098999  0.9177725702475464  1.0000
  C   C246      1.0  0.5870250349981394  0.35266557576049223  0.8579509044571086  1.0000
  C   C247      1.0  0.5387534570286588  0.3840628441284961  0.9264284013751591  1.0000
  C   C248      1.0  0.5583426129755201  0.40326252949278685  0.913718258541222  1.0000
  C   C249      1.0  0.5715226938384977  0.3937665820874464  0.8913133552467161  1.0000
  C   C250      1.0  0.5658760907429267  0.36533735764205405  0.8807250772935309  1.0000
  C   C251      1.0  0.545493139450365  0.3471479396791898  0.8937317837492142  1.0000
  C   C252      1.0  0.5325785951364921  0.3557895009703371  0.9163280184125889  1.0000
  C   C253      1.0  0.570935270494301  0.325291851162562  0.843662277830006  1.0000
  C   C254      1.0  0.5851671020349096  0.29788476239304945  0.8392865294239826  1.0000
  C   C255      1.0  0.5702431372212506  0.27434508338397323  0.8271369875008303  1.0000
  C   C256      1.0  0.5400184403196351  0.27809028866209967  0.8180430075385086  1.0000
  C   C257      1.0  0.5250606469900315  0.30474214460248433  0.82255268790274  1.0000
  C   C258      1.0  0.5402312593447617  0.3279838413405332  0.8356110538280179  1.0000
  C   C259      1.0  0.5716337599279823  0.4001173630374386  0.830502506279228  1.0000
  C   C260      1.0  0.5787102658451034  0.4213401657996993  0.8125709303888683  1.0000
  C   C261      1.0  0.6054350436146108  0.4187113067522486  0.798511901404408  1.0000
  C   C262      1.0  0.6228953969703471  0.39284971791091944  0.8006433328536036  1.0000
  C   C263      1.0  0.615787297125158  0.3707253643586724  0.8182802584359056  1.0000
  C   C264      1.0  0.5914071892886201  0.3750872018200121  0.834533858221288  1.0000
  H   H145      1.0  0.7193230581850972  0.397854516461382  0.9647692943827259  1.0000
  H   H146      1.0  0.6254141457222403  0.40903388794211454  0.9404568173406005  1.0000
  H   H147      1.0  0.6327222160677344  0.4619051961020622  0.936457991731248  1.0000
  H   H148      1.0  0.7264655648140448  0.45266874437180393  0.9612908900966958  1.0000
  H   H149      1.0  0.6032532969961015  0.35167458853863737  0.9426437348867679  1.0000
  H   H150      1.0  0.5661931777483159  0.350230548908144  0.97412157169302  1.0000
  H   H151      1.0  0.6354229367244515  0.3625149863529647  0.03172953354564867  1.0000
  H   H152      1.0  0.6747373384705636  0.3644954914198962  0.99889324402043  1.0000
  H   H153      1.0  0.6728424861620038  0.3935142050242861  0.9007708648098879  1.0000
  H   H154      1.0  0.6387720660982948  0.39185310656218375  0.8652578494341981  1.0000
  H   H155      1.0  0.6063994767291102  0.3051888392257297  0.8896506856512484  1.0000
  H   H156      1.0  0.6411196258681138  0.3079265615747294  0.9260725250290636  1.0000
  H   H157      1.0  0.563032284569394  0.42549205956491853  0.9217350428968137  1.0000
  H   H158      1.0  0.5874919009494278  0.4092693100615743  0.8827244900982072  1.0000
  H   H159      1.0  0.5431136628263837  0.3244232272732654  0.8876665793560816  1.0000
  H   H160      1.0  0.5178736957647925  0.3397320612991533  0.9257281285651002  1.0000
  H   H161      1.0  0.609239231799808  0.2950900717454735  0.8443185444252251  1.0000
  H   H162      1.0  0.5821109479660841  0.2532880005180314  0.8243684225933026  1.0000
  H   H163      1.0  0.500962037154564  0.30826192874522135  0.8167725672492214  1.0000
  H   H164      1.0  0.5282942450687557  0.3486913617173834  0.8390818048592933  1.0000
  H   H165      1.0  0.5516976341687537  0.40432360193053163  0.8423114783657942  1.0000
  H   H166      1.0  0.5646496680914463  0.44186300552720226  0.8121710478279331  1.0000
  H   H167      1.0  0.6435596847697044  0.38914695063667487  0.7891864104857554  1.0000
  H   H168      1.0  0.6317232917333074  0.35253376166119976  0.8211884952427074  1.0000
  C   C265      1.0  0.36835055237656555  0.5143916656974312  0.14273358383866855  1.0000
  C   C266      1.0  0.3909708532970657  0.4975257480778804  0.15532337924158732  1.0000
  C   C267      1.0  0.3872516253615786  0.490464868186978  0.1803401470525178  1.0000
  C   C268      1.0  0.36143966888149176  0.49994521366247563  0.194262565439606  1.0000
  C   C269      1.0  0.34060459123297737  0.5190602552525063  0.18171811557110903  1.0000
  C   C270      1.0  0.34338143916688846  0.525200876333934  0.15633724416522174  1.0000
  H   H169      1.0  0.4093897498707134  0.4864775902779907  0.14530679941858152  1.0000
  H   H170      1.0  0.40210868899898966  0.473639912832159  0.1889634518474229  1.0000
  H   H171      1.0  0.3198240921216758  0.5265839872303995  0.19085170112678654  1.0000
  H   H172      1.0  0.32371805932376074  0.5365299151302625  0.1472105465388235  1.0000
  C   C271      1.0  0.3323408965534244  0.5328474717121537  0.241347302004465  1.0000
  C   C272      1.0  0.3284871455109087  0.5018563684242522  0.23653723139110988  1.0000
  C   C273      1.0  0.30225809260409975  0.48886588411233284  0.2460196140322347  1.0000
  C   C274      1.0  0.279211707087987  0.5061669941310164  0.2568834091565904  1.0000
  C   C275      1.0  0.2828981644241616  0.5371836144790356  0.25910476634915414  1.0000
  C   C276      1.0  0.30987294002285254  0.550231393435016  0.25262819951295407  1.0000
  C   C277      1.0  0.3541602995041646  0.48409812728733204  0.2211886289804756  1.0000
  C   C278      1.0  0.3803899512130058  0.48514941995833377  0.24252972986407256  1.0000
  C   C279      1.0  0.37703511275738427  0.4691364053210604  0.2653938284438631  1.0000
  C   C280      1.0  0.40127719081093793  0.46541085379666075  0.2818502394802462  1.0000
  C   C281      1.0  0.428765147310286  0.47996498849600416  0.278081011513536  1.0000
  C   C282      1.0  0.4319415374924385  0.49792986644570614  0.2562558422667016  1.0000
  C   C283      1.0  0.4076508498423945  0.5009980519635209  0.2394588613937325  1.0000
  C   C284      1.0  0.32161618260774943  0.4434236811017558  0.19723202828444575  1.0000
  C   C285      1.0  0.3204278398767638  0.4170892489740407  0.18265927457457337  1.0000
  C   C286      1.0  0.3445493289197189  0.3966058149743431  0.18289977810524113  1.0000
  C   C287      1.0  0.3671812152669577  0.40073686888513055  0.20183737433311147  1.0000
  C   C288      1.0  0.3698556005360577  0.4273735933329392  0.21494357310060647  1.0000
  C   C289      1.0  0.347667975782958  0.4502044606425428  0.2124639185600702  1.0000
  C   C290      1.0  0.34457052401450317  0.3701602574228278  0.16219026207027923  1.0000
  C   C291      1.0  0.30413772305100606  0.29487855406212815  0.20475709102204542  1.0000
  C   C292      1.0  0.286824399962211  0.31197070106806507  0.18761839232427704  1.0000
  C   C293      1.0  0.30024992769282105  0.3357016010494371  0.17514722237005675  1.0000
  C   C294      1.0  0.3313652354816515  0.3434163884649519  0.17826037507291675  1.0000
  C   C295      1.0  0.34837171237597664  0.3267408112292503  0.19591758178031884  1.0000
  C   C296      1.0  0.3351744561287134  0.30308286479058333  0.20871191041655812  1.0000
  C   C297      1.0  0.37889240781169425  0.3627989972737094  0.15325470448138068  1.0000
  C   C298      1.0  0.40009493347356007  0.3859384994618193  0.14925549620929046  1.0000
  C   C299      1.0  0.4271581869438696  0.38052036522277166  0.1368746346611761  1.0000
  C   C300      1.0  0.4350820342532885  0.3521925001746788  0.12835005685260717  1.0000
  C   C301      1.0  0.4143526401626538  0.32902277643283656  0.13225742606764052  1.0000
  C   C302      1.0  0.38706761799021144  0.3341788156545579  0.14497445683085688  1.0000
  C   C303      1.0  0.320136307887735  0.3527070613774267  0.11776885816007032  1.0000
  C   C304      1.0  0.31507547604499947  0.3559336591805202  0.09191520694170886  1.0000
  C   C305      1.0  0.3180530089717129  0.3836106459127188  0.08091154858671025  1.0000
  C   C306      1.0  0.3257941792365608  0.4085215537934625  0.09638834301448646  1.0000
  C   C307      1.0  0.33351035943209895  0.40402740292649797  0.12231450882164908  1.0000
  C   C308      1.0  0.3296006449988461  0.3762020344694627  0.13371116180830367  1.0000
  H   H173      1.0  0.35273984890645166  0.5438767345696359  0.23531271063035122  1.0000
  H   H174      1.0  0.2978651930746715  0.46451934361868197  0.2446975142733531  1.0000
  H   H175      1.0  0.25813956449080944  0.49641108090145575  0.2640583354891607  1.0000
  H   H176      1.0  0.31481267054344814  0.5741284851390714  0.25462378569025296  1.0000
  H   H177      1.0  0.3558433600640973  0.45638626926985637  0.2690597374713843  1.0000
  H   H178      1.0  0.3994385834627268  0.45129011684809156  0.29848841531705445  1.0000
  H   H179      1.0  0.4539002073606578  0.5091982772326865  0.25197767285880107  1.0000
  H   H180      1.0  0.41060251791522795  0.5154448732026797  0.2230847228459628  1.0000
  H   H181      1.0  0.30276955548827317  0.4602392089028067  0.19601324746475313  1.0000
  H   H182      1.0  0.3001932065825167  0.4147235300207144  0.16998280606155713  1.0000
  H   H183      1.0  0.3861291155894843  0.3851319178575625  0.20400515874239203  1.0000
  H   H184      1.0  0.39115495889928825  0.4303333485700583  0.22530990666590395  1.0000
  H   H185      1.0  0.2622663164919574  0.30763930643243187  0.18398443563535688  1.0000
  H   H186      1.0  0.28470977529812236  0.34906914490756685  0.16313850033439173  1.0000
  H   H187      1.0  0.37282788300195246  0.3307761613805222  0.19776201617621159  1.0000
  H   H188      1.0  0.3504773480273199  0.2910476733129312  0.22214145919744094  1.0000
  H   H189      1.0  0.3933390825817966  0.40860767165567724  0.15358494242404777  1.0000
  H   H190      1.0  0.4417402800074035  0.39956373387062016  0.13293531310754175  1.0000
  H   H191      1.0  0.41760698974063887  0.3062346367321514  0.12565802449262684  1.0000
  H   H192      1.0  0.3702861873205148  0.31567958528158546  0.145796607722885  1.0000
  H   H193      1.0  0.3199916180413625  0.3302859553476551  0.1252872242997596  1.0000
  H   H194      1.0  0.3111112018256131  0.3366313669635431  0.07980546194328123  1.0000
  H   H195      1.0  0.32871789689615943  0.4304174646612576  0.08836027010813138  1.0000
  H   H196      1.0  0.3416364079423416  0.42326240404289234  0.13343621863123958  1.0000
  C   C309      1.0  0.3319321220263599  0.31786091031490615  0.8816032882766376  1.0000
  C   C310      1.0  0.3148395651328114  0.33566607217594285  0.8971432220561404  1.0000
  C   C311      1.0  0.3283966672207452  0.357060853598376  0.9127118555409736  1.0000
  C   C312      1.0  0.36007403060412685  0.3615626615918377  0.9137526981876183  1.0000
  C   C313      1.0  0.3768551958344118  0.34566306672516806  0.8954097598541915  1.0000
  C   C314      1.0  0.3632358955984747  0.3221076360287819  0.8814100435940804  1.0000
  H   H197      1.0  0.29005120080455943  0.33316410740590713  0.8971910548983576  1.0000
  H   H198      1.0  0.3132813974709806  0.370266491114525  0.925043162264551  1.0000
  H   H199      1.0  0.40130659035486116  0.34953946233960576  0.8926813745341261  1.0000
  H   H200      1.0  0.37742012346164555  0.31073420078375563  0.8675002530773376  1.0000
  C   C315      1.0  0.4241329821628925  0.35582781449134837  0.9423739576566633  1.0000
  C   C316      1.0  0.4086285845521362  0.38335107140056396  0.9425729422802865  1.0000
  C   C317      1.0  0.425255403799564  0.40823559459355346  0.9522906625051196  1.0000
  C   C318      1.0  0.45529964617939817  0.40523053599493825  0.9610746856498743  1.0000
  C   C319      1.0  0.47036254459534377  0.37875151881906516  0.9587787092234519  1.0000
  C   C320      1.0  0.4551527565709967  0.3540143239061188  0.9493422461108555  1.0000
  C   C321      1.0  0.3740793540237938  0.3873856729772607  0.9326256244128112  1.0000
  C   C322      1.0  0.3580901493502691  0.38735003536267654  0.9598272051248514  1.0000
  C   C323      1.0  0.35456066344637466  0.4143289235070386  0.9737561287784812  1.0000
  C   C324      1.0  0.3487763812717739  0.41409490058378445  0.9992012875243083  1.0000
  C   C325      1.0  0.3444846025123033  0.3875960183679933  0.011595733599612412  1.0000
  C   C326      1.0  0.34588858479723744  0.36065179873769  0.9982809836400506  1.0000
  C   C327      1.0  0.3529483463682634  0.36031832214319  0.9726770198580625  1.0000
  C   C328      1.0  0.3935346747833009  0.42307427702834244  0.8984213156001822  1.0000
  C   C329      1.0  0.3937933463214278  0.44906664269931623  0.8845191783381942  1.0000
  C   C330      1.0  0.3692871133512175  0.46937282915305883  0.8855370612205747  1.0000
  C   C331      1.0  0.3440698688794279  0.4611474258902448  0.9001184248420462  1.0000
  C   C332      1.0  0.34498517127456074  0.4346416005936078  0.914357305313243  1.0000
  C   C333      1.0  0.3709104976277961  0.4161426524111512  0.9149466059293581  1.0000
  C   C334      1.0  0.37289409535150453  0.5019192577834204  0.87353675776514  1.0000
  C   C335      1.0  0.39947120542274445  0.5454394080234942  0.9463326036785533  1.0000
  C   C336      1.0  0.4205377748089357  0.5294346251198746  0.9326581507455187  1.0000
  C   C337      1.0  0.4123786311525685  0.5165341200304693  0.9096180273063692  1.0000
  C   C338      1.0  0.3833579535768236  0.5202778123440375  0.8990163561573634  1.0000
  C   C339      1.0  0.3619993024282463  0.5367584837815486  0.9135269271723535  1.0000
  C   C340      1.0  0.36983444785457464  0.5489079101827801  0.9369229269575986  1.0000
  C   C341      1.0  0.3427661137995214  0.5168965915400953  0.8601588684538516  1.0000
  C   C342      1.0  0.31906480055729786  0.4988586904236851  0.8499991727669322  1.0000
  C   C343      1.0  0.29342204881563727  0.5116423178659041  0.8385632968496596  1.0000
  C   C344      1.0  0.2918441713820987  0.5424476056734612  0.8356454934744143  1.0000
  C   C345      1.0  0.3161907072405736  0.560594127986737  0.8441999189765267  1.0000
  C   C346      1.0  0.3413660735935386  0.5478962450840561  0.8558653925364417  1.0000
  C   C347      1.0  0.42008517233891174  0.5224692123759639  0.8473281868575273  1.0000
  C   C348      1.0  0.44283281765291455  0.5176010049728946  0.829584115708659  1.0000
  C   C349      1.0  0.4417881549864604  0.49275135582162266  0.813588813271249  1.0000
  C   C350      1.0  0.4160129521057009  0.47461831054873577  0.8137992777770043  1.0000
  C   C351      1.0  0.39318695630597283  0.47943736560290917  0.8310898935816543  1.0000
  C   C352      1.0  0.3957869019029552  0.5020194232346635  0.8496586029303461  1.0000
  H   H201      1.0  0.4129377105348656  0.33480604044794954  0.9368368278416077  1.0000
  H   H202      1.0  0.41455208004103244  0.4306873278824002  0.9515616899897306  1.0000
  H   H203      1.0  0.4667756556969955  0.42414737767376165  0.9694052534504105  1.0000
  H   H204      1.0  0.4677083893687052  0.33261691647962394  0.9470309631749234  1.0000
  H   H205      1.0  0.36127657210999703  0.4358353566100675  0.9651997899626801  1.0000
  H   H206      1.0  0.350658914935251  0.4345130305076184  0.010707956048062295  1.0000
  H   H207      1.0  0.34230439511767774  0.33887118695997204  0.007084139921692101  1.0000
  H   H208      1.0  0.3580140718583818  0.3391228646160347  0.9632309901770228  1.0000
  H   H209      1.0  0.41451028815176727  0.4095993321349784  0.8975488445581417  1.0000
  H   H210      1.0  0.41502241653186306  0.45419398208135237  0.8747134456836815  1.0000
  H   H211      1.0  0.3238145005535776  0.47589607954823937  0.9016414225382398  1.0000
  H   H212      1.0  0.32565698694083234  0.4290933705400339  0.9260629584606203  1.0000
  H   H213      1.0  0.44429234406268947  0.5256350716146587  0.9404223776942041  1.0000
  H   H214      1.0  0.42936853149637927  0.5035285126486161  0.8995023378342895  1.0000
  H   H215      1.0  0.3382358399000744  0.5385661575637551  0.9069393881422096  1.0000
  H   H216      1.0  0.35171548581047746  0.5608625523125036  0.947015656665414  1.0000
  H   H217      1.0  0.31950590214044094  0.47477176022930345  0.8507090121454345  1.0000
  H   H218      1.0  0.274713817228143  0.49709943936914064  0.83221683534429  1.0000
  H   H219      1.0  0.31541693976441876  0.5852321377662494  0.8419862150387177  1.0000
  H   H220      1.0  0.35993092129239  0.5632841907071172  0.8619899096539235  1.0000
  H   H221      1.0  0.42245791813147027  0.5412869259989311  0.8607730421479196  1.0000
  H   H222      1.0  0.46321129975748926  0.5324733977822299  0.8302135959122364  1.0000
  H   H223      1.0  0.414670004725562  0.45558868652613  0.8004673079942446  1.0000
  H   H224      1.0  0.37420298051646067  0.46354362445957964  0.8317882530780245  1.0000
  C   C353      1.0  0.6743721756306388  0.5760568126676713  0.4082399151274263  1.0000
  C   C354      1.0  0.6535990284524967  0.5548620233858294  0.39860638070489535  1.0000
  C   C355      1.0  0.6628755735455125  0.5324913998979577  0.3825288057788719  1.0000
  C   C356      1.0  0.6936288902971053  0.5290546573991505  0.3762512235662951  1.0000
  C   C357      1.0  0.7144376577816419  0.5490317131326335  0.38808506873081433  1.0000
  C   C358      1.0  0.7051271946414722  0.5725353336276935  0.4031811137345421  1.0000
  H   H225      1.0  0.6294028398670665  0.5558946054878362  0.40258798649104965  1.0000
  H   H226      1.0  0.6457187811543017  0.5172123679043319  0.3753653593284338  1.0000
  H   H227      1.0  0.739786782103385  0.547525585051715  0.38567046685569334  1.0000
  H   H228      1.0  0.7224761838391928  0.5883709176147844  0.41001547023052637  1.0000
  C   C359      1.0  0.7351193264741208  0.5393654020219024  0.3307736704999319  1.0000
  C   C360      1.0  0.7348085186306007  0.5111651781751211  0.34256159613592263  1.0000
  C   C361      1.0  0.7605139668353175  0.49306382628888673  0.3390468388898076  1.0000
  C   C362      1.0  0.7862625099166319  0.5028460415561227  0.32724743337168466  1.0000
  C   C363      1.0  0.7872791949868924  0.5317701647556939  0.31802908801959845  1.0000
  C   C364      1.0  0.7611260923769015  0.549708437448181  0.3188805126110634  1.0000
  C   C365      1.0  0.7064862336523802  0.5015997531146613  0.3596092211021095  1.0000
  C   C366      1.0  0.6844794027838437  0.4871249654545041  0.3375869805453406  1.0000
  C   C367      1.0  0.6890575765082071  0.4577000664387085  0.3300121716518351  1.0000
  C   C368      1.0  0.6697646791764202  0.44345295328670287  0.3123886392653539  1.0000
  C   C369      1.0  0.6458684579764737  0.45904876175679615  0.30090110387848673  1.0000
  C   C370      1.0  0.6419258450777829  0.4890245119216722  0.30721121242377114  1.0000
  C   C371      1.0  0.6610226155896751  0.5027001172444515  0.3250031164148567  1.0000
  C   C372      1.0  0.7397473098928098  0.4724042162420243  0.3946687811335808  1.0000
  C   C373      1.0  0.7415693745562725  0.4501167451155227  0.41362780647476444  1.0000
  C   C374      1.0  0.7148112911823898  0.43693585644499017  0.42282319206258645  1.0000
  C   C375      1.0  0.6874430496125465  0.44609527493709644  0.4123497129307226  1.0000
  C   C376      1.0  0.6858747715970531  0.4642629708005773  0.39147163395978746  1.0000
  C   C377      1.0  0.7122189397879826  0.47744086263923124  0.3816582480505201  1.0000
  C   C378      1.0  0.7153356637048814  0.41427703329577903  0.4473729200021088  1.0000
  C   C379      1.0  0.7969300938843383  0.3553391595174856  0.455393530985078  1.0000
  C   C380      1.0  0.7816963782049823  0.3650551646460672  0.4767805513972034  1.0000
  C   C381      1.0  0.7550068711790354  0.3822849351779998  0.4742109711132989  1.0000
  C   C382      1.0  0.744315233163478  0.391957686032826  0.4500859988126647  1.0000
  C   C383      1.0  0.7589635961683272  0.38002683039309226  0.42868941183209586  1.0000
  C   C384      1.0  0.7847472266636684  0.3623491922874737  0.43132021815403826  1.0000
  C   C385      1.0  0.6875539577072949  0.39150166064834874  0.4470610498708531  1.0000
  C   C386      1.0  0.6708584115027257  0.3862615952265023  0.46916173628885816  1.0000
  C   C387      1.0  0.6441234068866334  0.3695929275725994  0.4676808314938156  1.0000
  C   C388      1.0  0.634018602624687  0.35642358667658935  0.4455150924103953  1.0000
  C   C389      1.0  0.6511659740400756  0.3607332150849352  0.4234507589524752  1.0000
  C   C390      1.0  0.6780755945189049  0.37649428748338426  0.42472502586913974  1.0000
  C   C391      1.0  0.7450289507689287  0.4532602146961051  0.476162551075758  1.0000
  C   C392      1.0  0.7468988462822019  0.47897000238127135  0.49104621826004174  1.0000
  C   C393      1.0  0.7203331166546063  0.49463106787894384  0.4967995525219187  1.0000
  C   C394      1.0  0.6921893739903031  0.483017381721791  0.48898366610363886  1.0000
  C   C395      1.0  0.6901508174029083  0.45603221990230514  0.47591382029622886  1.0000
  C   C396      1.0  0.7165353966721876  0.4409011526291776  0.4683083983837044  1.0000
  H   H229      1.0  0.7161835051437279  0.55487929125786  0.33253965903458843  1.0000
  H   H230      1.0  0.7601521259899561  0.47031754040770235  0.346141406047453  1.0000
  H   H231      1.0  0.8062708419915292  0.48862213557474005  0.32697956945526874  1.0000
  H   H232      1.0  0.76212493552547  0.5726287546890365  0.3117457658659556  1.0000
  H   H233      1.0  0.7085413431841349  0.4449408984169381  0.33793711695037004  1.0000
  H   H234      1.0  0.6756768362085678  0.4209361918366408  0.30654346594641996  1.0000
  H   H235      1.0  0.6230625290320073  0.5018461774281493  0.29838126975048807  1.0000
  H   H236      1.0  0.6568855956938888  0.5259847065811764  0.32979979383239105  1.0000
  H   H237      1.0  0.7613199257655942  0.48310099120674016  0.3889479732044114  1.0000
  H   H238      1.0  0.7644506586270031  0.4440765021224265  0.42127340797475127  1.0000
  H   H239      1.0  0.6654662700854543  0.438081206878854  0.419036744272678  1.0000
  H   H240      1.0  0.6630404663579808  0.4680196774368796  0.38293060165349585  1.0000
  H   H241      1.0  0.7902613905567479  0.3590874219300235  0.49506991694734714  1.0000
  H   H242      1.0  0.7433614384928315  0.3902565439146909  0.49153028662327913  1.0000
  H   H243      1.0  0.7505303209874717  0.3854983680349554  0.40983753205747864  1.0000
  H   H244      1.0  0.7962524778112477  0.3538509758073036  0.4146552559255885  1.0000
  H   H245      1.0  0.6773173609050385  0.3958854242765401  0.4877017459322196  1.0000
  H   H246      1.0  0.6307407272952011  0.3667079946669593  0.4844567659162092  1.0000
  H   H247      1.0  0.6431353570795754  0.3508103616398273  0.40543117063243617  1.0000
  H   H248      1.0  0.6906755295217153  0.38039621795087253  0.4071741994028285  1.0000
  H   H249      1.0  0.7670872150786372  0.44386223889817267  0.47085119227596733  1.0000
  H   H250      1.0  0.7689724788613799  0.4869645497942843  0.4974940853909115  1.0000
  H   H251      1.0  0.6709346978239054  0.49480471332548526  0.4932560955704734  1.0000
  H   H252      1.0  0.6683070826928269  0.44781271286763824  0.46911007681926364  1.0000
  C   C397      1.0  0.7831767412404764  0.36408586368145895  0.6275936762804527  1.0000
  C   C398      1.0  0.788648663966109  0.39035877634321436  0.6147247284103546  1.0000
  C   C399      1.0  0.76723489399164  0.4127014998144457  0.6139594029348805  1.0000
  C   C400      1.0  0.7384808088845317  0.4096061314365104  0.624903557234161  1.0000
  C   C401      1.0  0.7327331888568583  0.38250162593771536  0.6374491550908711  1.0000
  C   C402      1.0  0.7549368506714219  0.3598472031149309  0.6385760968535068  1.0000
  H   H253      1.0  0.8108955279457096  0.3946442071627424  0.6065759254102435  1.0000
  H   H254      1.0  0.7732518910608708  0.43308745261608445  0.6033328587079217  1.0000
  H   H255      1.0  0.7117895337058453  0.3789248465894497  0.6471745285704591  1.0000
  H   H256      1.0  0.7495046987736369  0.33885799090293756  0.6483014703330947  1.0000
  C   C403      1.0  0.668315843481863  0.40173087346338093  0.6077296535645208  1.0000
  C   C404      1.0  0.6784807119266192  0.42765777245481695  0.6199193750751355  1.0000
  C   C405      1.0  0.6556112511802836  0.44901613927743744  0.6256248764947954  1.0000
  C   C406      1.0  0.6246010153491328  0.44268882930243125  0.6232255811291838  1.0000
  C   C407      1.0  0.6156429949099074  0.4140775223619454  0.6146577624312507  1.0000
  C   C408      1.0  0.6377819107298035  0.3944603363333588  0.6059923647351945  1.0000
  C   C409      1.0  0.7143394861860675  0.43632169568000767  0.6249265169984252  1.0000
  C   C410      1.0  0.7160863322646079  0.4599837624772453  0.6019763193026438  1.0000
  C   C411      1.0  0.7102425770076805  0.49060777567565816  0.6056958011134482  1.0000
  C   C412      1.0  0.7076379149788594  0.5096646401920147  0.5852539576635334  1.0000
  C   C413      1.0  0.7085228911195985  0.4986631018636078  0.5607635424483602  1.0000
  C   C414      1.0  0.7149057983109294  0.4688074529361039  0.5568565558960648  1.0000
  C   C415      1.0  0.7176213501857631  0.44962206100781466  0.5770975014086676  1.0000
  C   C416      1.0  0.7022707460776337  0.44517574961533374  0.6727478793334281  1.0000
  C   C417      1.0  0.7006047397363185  0.464920274372233  0.692380391093029  1.0000
  C   C418      1.0  0.7191586172466718  0.4899954745424365  0.6941712527056385  1.0000
  C   C419      1.0  0.7433272296563735  0.491443550077939  0.676999262349687  1.0000
  C   C420      1.0  0.7454391294527357  0.4710085378906297  0.6568597224625845  1.0000
  C   C421      1.0  0.7218677351070388  0.449962959090484  0.6527824509919959  1.0000
  C   C422      1.0  0.7097811395280498  0.5188203759058101  0.7097398861904716  1.0000
  C   C423      1.0  0.664227110185407  0.561027154513306  0.641834470065338  1.0000
  C   C424      1.0  0.6488186526593062  0.5397101243896826  0.6558801058539776  1.0000
  C   C425      1.0  0.6623780732544526  0.5275071946546489  0.6775369034962077  1.0000
  C   C426      1.0  0.691098905262161  0.5364422597949312  0.6867284624566523  1.0000
  C   C427      1.0  0.7060384602641613  0.5582275066109936  0.6723518233998702  1.0000
  C   C428      1.0  0.6922627576878547  0.5712009663111819  0.6512938929421987  1.0000
  C   C429      1.0  0.7384314048158805  0.5357277854623315  0.7233033669295623  1.0000
  C   C430      1.0  0.7656031704546857  0.5215781265738505  0.73122448560072  1.0000
  C   C431      1.0  0.7886023384029454  0.5371678228009493  0.7440226408643366  1.0000
  C   C432      1.0  0.7853721527438667  0.5669267436049363  0.7496018635805431  1.0000
  C   C433      1.0  0.7585112545305962  0.5815876937172147  0.7424192839932181  1.0000
  C   C434      1.0  0.7352741244550054  0.5660674997313705  0.7292729056382607  1.0000
  C   C435      1.0  0.6634746823338565  0.5241012890934236  0.7411144040575348  1.0000
  C   C436      1.0  0.6436115548987288  0.5117616911985037  0.7589541408908375  1.0000
  C   C437      1.0  0.6523383085010833  0.48619257697729384  0.7720316399530021  1.0000
  C   C438      1.0  0.6812422884209482  0.4743998032229118  0.7681839661250558  1.0000
  C   C439      1.0  0.6999096236723694  0.4861607093505061  0.7499347801623745  1.0000
  C   C440      1.0  0.6901746051257058  0.510290508848369  0.7345766111832966  1.0000
  H   H257      1.0  0.6838703950902463  0.3850158156240535  0.5997358289731932  1.0000
  H   H258      1.0  0.6618607745762263  0.470772761745127  0.6331556791734612  1.0000
  H   H259      1.0  0.6092377486509285  0.4591208308356487  0.6304234672260184  1.0000
  H   H260      1.0  0.6323294355206707  0.3724190759568472  0.5985438345451423  1.0000
  H   H261      1.0  0.7059833842169696  0.5003305788292096  0.6241573648955736  1.0000
  H   H262      1.0  0.7017653531094983  0.5330743536516003  0.5890537986492627  1.0000
  H   H263      1.0  0.7144449003057338  0.4592607506482888  0.5380659021594854  1.0000
  H   H264      1.0  0.7206759578528256  0.4258591366579805  0.5733053136776931  1.0000
  H   H265      1.0  0.6843749815110894  0.427764769587674  0.670790559429903  1.0000
  H   H266      1.0  0.6803663564731379  0.4619992774938257  0.7046542984059458  1.0000
  H   H267      1.0  0.7581201056560514  0.51115195069007  0.6774928972813679  1.0000
  H   H268      1.0  0.7615715114254987  0.4741370831357349  0.6415666061489221  1.0000
  H   H269      1.0  0.6263850235636743  0.5315189330686082  0.648944343732493  1.0000
  H   H270      1.0  0.6507319669833191  0.5083179910025692  0.686158294977424  1.0000
  H   H271      1.0  0.7298372889945368  0.5643943204176828  0.6771791138364235  1.0000
  H   H272      1.0  0.7047878877450207  0.5869269636948682  0.6402024134888894  1.0000
  H   H273      1.0  0.7692446543271921  0.49779667749924333  0.727916366232983  1.0000
  H   H274      1.0  0.8087171675875491  0.5242185777524168  0.7506350529724333  1.0000
  H   H275      1.0  0.7546258227886194  0.6053510889075644  0.7473307602320736  1.0000
  H   H276      1.0  0.7148027666491631  0.5782684181983253  0.7238716210951018  1.0000
  H   H277      1.0  0.6547776227106462  0.5428793019030422  0.7302123426594054  1.0000
  H   H278      1.0  0.6210821208763918  0.5219210955357542  0.7608693678932115  1.0000
  H   H279      1.0  0.6889543070495138  0.4551526293322031  0.7790401079946567  1.0000
  H   H280      1.0  0.7213860679389594  0.47453510725512343  0.7465711746976654  1.0000
  C   C441      1.0  0.5319028967735634  0.6682001462833508  0.442220366238479  1.0000
  C   C442      1.0  0.5510960338212955  0.6503534701759982  0.4281881236456603  1.0000
  C   C443      1.0  0.5588072561226786  0.6570437889055035  0.4038010273696762  1.0000
  C   C444      1.0  0.5463080097708235  0.6818653910067338  0.3920303215568836  1.0000
  C   C445      1.0  0.5255959586052824  0.6992205704015494  0.4055210963758044  1.0000
  C   C446      1.0  0.5196229454181498  0.6933497714805776  0.43067543144095133  1.0000
  H   H281      1.0  0.5596180790621905  0.6292903106964384  0.43640963256594145  1.0000
  H   H282      1.0  0.5761267294203263  0.6423161289295779  0.3957000572117822  1.0000
  H   H283      1.0  0.5157450832661156  0.7195240004503533  0.3974373460411086  1.0000
  H   H284      1.0  0.5041148025594259  0.7079646879235416  0.44069545522859677  1.0000
  C   C447      1.0  0.5045120473536572  0.6966786002206635  0.34421278584925813  1.0000
  C   C448      1.0  0.5333007707017421  0.710576480879538  0.34847947537502655  1.0000
  C   C449      1.0  0.536097303167134  0.7396279257010735  0.33958639335001684  1.0000
  C   C450      1.0  0.5110514228151483  0.7555468518875247  0.32934442517448387  1.0000
  C   C451      1.0  0.4826269478059251  0.7412793035724822  0.32634434931062517  1.0000
  C   C452      1.0  0.4799599159635071  0.7115167797973185  0.33364172771927125  1.0000
  C   C453      1.0  0.55977927537614  0.6938785756884908  0.3648440473543528  1.0000
  C   C454      1.0  0.5716568805304945  0.6697854527913211  0.3443448044937774  1.0000
  C   C455      1.0  0.5921904687987644  0.6796520706487169  0.3257014759112269  1.0000
  C   C456      1.0  0.603476731309708  0.6600868534154337  0.3077125006102067  1.0000
  C   C457      1.0  0.595508561553586  0.6299246808573097  0.30770102072807465  1.0000
  C   C458      1.0  0.5746324064960002  0.6200621376287224  0.3252269741164329  1.0000
  C   C459      1.0  0.5624720864928959  0.6394550676105634  0.34266300176142295  1.0000
  C   C460      1.0  0.5844996642596388  0.7413984699655364  0.3890187658108928  1.0000
  C   C461      1.0  0.6052228763029996  0.751077170818904  0.407354050889565  1.0000
  C   C462      1.0  0.6284442575109358  0.7326188929806348  0.41538040181360025  1.0000
  C   C463      1.0  0.6365990916061239  0.7084763656600319  0.3997180159580216  1.0000
  C   C464      1.0  0.6155868817389878  0.6980789912029118  0.38155492911133104  1.0000
  C   C465      1.0  0.5879304025095385  0.713501149584829  0.37680225790863653  1.0000
  C   C466      1.0  0.6440737733088833  0.734704735656288  0.4430622242615006  1.0000
  C   C467      1.0  0.7241772131848955  0.7922809489177263  0.4283163156628022  1.0000
  C   C468      1.0  0.696069366670721  0.8044960398336072  0.43521955145157915  1.0000
  C   C469      1.0  0.6709171773389967  0.7865375910150724  0.4389141601844307  1.0000
  C   C470      1.0  0.6727988328925778  0.7554076438161641  0.4364153725070075  1.0000
  C   C471      1.0  0.7003128756396723  0.7435289199510747  0.42805801831482965  1.0000
  C   C472      1.0  0.7260367852739104  0.7613838488099689  0.42470589273225284  1.0000
  C   C473      1.0  0.6492750021693278  0.7016955495470129  0.454438787454424  1.0000
  C   C474      1.0  0.6248560032913592  0.6806259026547886  0.45365241552837426  1.0000
  C   C475      1.0  0.6307858018301631  0.6501179125837133  0.45584698632929643  1.0000
  C   C476      1.0  0.6605877225675758  0.6400689112019696  0.45945166931877973  1.0000
  C   C477      1.0  0.6835066882554562  0.6606370008686594  0.46543077459592164  1.0000
  C   C478      1.0  0.677248006564722  0.6914793664493947  0.4644741177515789  1.0000
  C   C479      1.0  0.6378242051346806  0.7614854193512749  0.4877074858732857  1.0000
  C   C480      1.0  0.6208461037804526  0.7719488229620152  0.5075083692374909  1.0000
  C   C481      1.0  0.5897639063713879  0.7661515690192272  0.5083177009278048  1.0000
  C   C482      1.0  0.5752606465951414  0.7530413987365743  0.48751615450441715  1.0000
  C   C483      1.0  0.5913558567577393  0.7455312509158886  0.4661463539154899  1.0000
  C   C484      1.0  0.6237146564965502  0.7487727596638526  0.46571777164922445  1.0000
  H   H285      1.0  0.5013837658846647  0.6738028122812488  0.34913000202917954  1.0000
  H   H286      1.0  0.558079583923371  0.7513477625070739  0.34178287746462765  1.0000
  H   H287      1.0  0.5131683941612374  0.7788944901785151  0.32372502287081484  1.0000
  H   H288      1.0  0.45890232276333964  0.6986786462206173  0.3290995210223322  1.0000
  H   H289      1.0  0.5992869682353997  0.7030490335077026  0.3253436862514427  1.0000
  H   H290      1.0  0.619197769901714  0.6675983899451363  0.2928039603479701  1.0000
  H   H291      1.0  0.5676421151840114  0.5968045368417432  0.3254623117001412  1.0000
  H   H292      1.0  0.5456317648741329  0.6310133081481931  0.3560370644453339  1.0000
  H   H293      1.0  0.5640792359453353  0.7548204073772693  0.38526101772631466  1.0000
  H   H294      1.0  0.5989711718132879  0.7709557915407398  0.41826567885613786  1.0000
  H   H295      1.0  0.6546772488487761  0.6930937955270299  0.4053967309860398  1.0000
  H   H296      1.0  0.6199764393256894  0.6760351086468567  0.3735324048146732  1.0000
  H   H297      1.0  0.6928516264914654  0.8284434408088307  0.4375384876422658  1.0000
  H   H298      1.0  0.6493553971537499  0.7965503302891557  0.4438179831685313  1.0000
  H   H299      1.0  0.7030063089605547  0.7197157670026265  0.42448394834436537  1.0000
  H   H300      1.0  0.747461547079524  0.7495871000961845  0.4206573209669946  1.0000
  H   H301      1.0  0.6016279117983807  0.6871508133041997  0.4484061093939989  1.0000
  H   H302      1.0  0.6120791322321713  0.634851680058383  0.4528469104654377  1.0000
  H   H303      1.0  0.7072799762597822  0.6530757418234318  0.46864705490660175  1.0000
  H   H304      1.0  0.6961526906074871  0.7063876774020154  0.4690565040359804  1.0000
  H   H305      1.0  0.6630612339735467  0.7627952781764672  0.48967819897263165  1.0000
  H   H306      1.0  0.6322216195001124  0.7819614804466463  0.5238404148841095  1.0000
  H   H307      1.0  0.5505618221088594  0.7492692921569054  0.48759842699303063  1.0000
  H   H308      1.0  0.5782829504623694  0.7359340225684522  0.4504648349230244  1.0000
  C   C485      1.0  0.7304626226264068  0.7844484017942184  0.6398618436523034  1.0000
  C   C486      1.0  0.7042315515638449  0.7931072857576673  0.6259233534302303  1.0000
  C   C487      1.0  0.6786422321334937  0.7744176741360977  0.6251312415631145  1.0000
  C   C488      1.0  0.677769657513023  0.7475700605688482  0.6380595021575617  1.0000
  C   C489      1.0  0.7041789166409546  0.7402347230270767  0.6523844817447493  1.0000
  C   C490      1.0  0.7300322580743743  0.7581990794215742  0.6531077143190724  1.0000
  H   H309      1.0  0.7041844849422947  0.8131971159683429  0.6145620967468164  1.0000
  H   H310      1.0  0.6595776354504009  0.7829096435870326  0.6131328514213684  1.0000
  H   H311      1.0  0.7044893450504508  0.71948244418264  0.6630741653234347  1.0000
  H   H312      1.0  0.749507979670236  0.7515567909744628  0.6653146556528853  1.0000
  C   C491      1.0  0.679137621799874  0.6819872853166375  0.6178147300175816  1.0000
  C   C492      1.0  0.6536742549669305  0.6919322052123067  0.6309783281957371  1.0000
  C   C493      1.0  0.6305648269339104  0.6707458844405827  0.6348413085331929  1.0000
  C   C494      1.0  0.6337437616734711  0.6410042693765916  0.6267728647080065  1.0000
  C   C495      1.0  0.6594439077803362  0.6315131141433825  0.6139747094443899  1.0000
  C   C496      1.0  0.6819432874649436  0.6524878999414089  0.6097367196239518  1.0000
  C   C497      1.0  0.648019437901595  0.7267155497309943  0.637273130231512  1.0000
  C   C498      1.0  0.6249028550493922  0.7338511123074305  0.6133146162217935  1.0000
  C   C499      1.0  0.5927352685589379  0.7337441529990282  0.6148490938001192  1.0000
  C   C500      1.0  0.5732136900062687  0.7372735550943688  0.5939729281428728  1.0000
  C   C501      1.0  0.5862102635548412  0.7391593418456718  0.569960841349871  1.0000
  C   C502      1.0  0.6175086863206357  0.7362378616620354  0.5672822021857115  1.0000
  C   C503      1.0  0.6366428289987329  0.7349323187967294  0.5886940956757898  1.0000
  C   C504      1.0  0.6313760618035984  0.7157413608973171  0.6832921510717733  1.0000
  C   C505      1.0  0.6076690986045115  0.7166892390801278  0.6996682029332316  1.0000
  C   C506      1.0  0.5858635065140483  0.7404046620955382  0.6992109209616358  1.0000
  C   C507      1.0  0.5918612190322581  0.7641951492860473  0.6828329557864887  1.0000
  C   C508      1.0  0.6155839819906697  0.7626944838563697  0.6658982163279344  1.0000
  C   C509      1.0  0.6334180033053247  0.7364100748213653  0.6635850200783137  1.0000
  C   C510      1.0  0.5511054281024229  0.7351665839164809  0.7103731930214264  1.0000
  C   C511      1.0  0.5087682063648541  0.7077298151316587  0.6360122565106684  1.0000
  C   C512      1.0  0.5270621001265933  0.6881228281833178  0.649558517426561  1.0000
  C   C513      1.0  0.5401377034829313  0.6965144526581657  0.6728550248999945  1.0000
  C   C514      1.0  0.5337552523625373  0.7247297619679792  0.6841187025852853  1.0000
  C   C515      1.0  0.5159283786787584  0.7442912790942572  0.6697535434106354  1.0000
  C   C516      1.0  0.5044297358396727  0.7362630974681492  0.6460552400625781  1.0000
  C   C517      1.0  0.5359084169561292  0.76301082237536  0.7243346430077637  1.0000
  C   C518      1.0  0.5531102431169396  0.7874873621573741  0.733212418523264  1.0000
  C   C519      1.0  0.5397157466678887  0.8110032716957876  0.7449639911991698  1.0000
  C   C520      1.0  0.5084970431569288  0.8116018002664205  0.7500974118259126  1.0000
  C   C521      1.0  0.491036735188651  0.7864305025676014  0.7420729742155662  1.0000
  C   C522      1.0  0.5048741419445848  0.7630017074114223  0.7296479151212432  1.0000
  C   C523      1.0  0.530392777667035  0.686194385609803  0.7318673590001182  1.0000
  C   C524      1.0  0.5351303824988084  0.6622520413459617  0.7476981164603012  1.0000
  C   C525      1.0  0.5586094966153936  0.6626917201646253  0.7658267636605954  1.0000
  C   C526      1.0  0.575192086977116  0.6888644289511197  0.7696495644105887  1.0000
  C   C527      1.0  0.5717930643917516  0.7131679518604579  0.7531510604730546  1.0000
  C   C528      1.0  0.5503118903783233  0.7109381915865992  0.7325044924584504  1.0000
  H   H313      1.0  0.6969163885988953  0.6974646265445034  0.6118298847993736  1.0000
  H   H314      1.0  0.6094937853054085  0.6755932827148644  0.6442892515279214  1.0000
  H   H315      1.0  0.6144667298452942  0.6256307451825703  0.6297901603950635  1.0000
  H   H316      1.0  0.7012321527238352  0.6456984471799616  0.5985400079177648  1.0000
  H   H317      1.0  0.5813258751419266  0.7310933012981394  0.6333183108369993  1.0000
  H   H318      1.0  0.5484476928782163  0.7361352939576357  0.5961981119628139  1.0000
  H   H319      1.0  0.6272688755985367  0.735428973993319  0.5486120872115193  1.0000
  H   H320      1.0  0.6612129772271262  0.7332199509029104  0.5857284594583274  1.0000
  H   H321      1.0  0.6457358155315116  0.6955737201199684  0.6833859034425188  1.0000
  H   H322      1.0  0.6046313193181031  0.6965627181698124  0.7117737386415441  1.0000
  H   H323      1.0  0.5750288694274295  0.783160831840834  0.6817385403565608  1.0000
  H   H324      1.0  0.6173586537295037  0.780728607717957  0.6519405929689743  1.0000
  H   H325      1.0  0.532422834519151  0.666534372951792  0.6412987422325062  1.0000
  H   H326      1.0  0.5561918528848296  0.6814143151988242  0.682448379735063  1.0000
  H   H327      1.0  0.5129789589747811  0.7667643768929898  0.6763219493038923  1.0000
  H   H328      1.0  0.49032323284824214  0.7524004338445958  0.6361978479384709  1.0000
  H   H329      1.0  0.5782086343365669  0.7887719082896988  0.7316779409449383  1.0000
  H   H330      1.0  0.5547119788252207  0.8283988305059219  0.7530898344350168  1.0000
  H   H331      1.0  0.4664174687077426  0.7872583752709067  0.74621529835157  1.0000
  H   H332      1.0  0.4904753713326926  0.7446459934530346  0.7225897009236827  1.0000
  H   H333      1.0  0.511224099693683  0.6844359432148134  0.7181699463028195  1.0000
  H   H334      1.0  0.5207616361210586  0.6423906635715216  0.7438657491418643  1.0000
  H   H335      1.0  0.5924355535275023  0.6903795975992892  0.7842978940111642  1.0000
  H   H336      1.0  0.5871242359135768  0.732416997122339  0.7550165413195228  1.0000
  C   C529      1.0  0.3651580677972771  0.5304303319014859  0.4370238062600095  1.0000
  C   C530      1.0  0.39158251614572637  0.54069363196761  0.42667086589053277  1.0000
  C   C531      1.0  0.3910030524426114  0.5542862078501095  0.40332269894750483  1.0000
  C   C532      1.0  0.36349025856355177  0.5584372537098469  0.3897630448357914  1.0000
  C   C533      1.0  0.336519680709627  0.5480052806677622  0.4013175462017626  1.0000
  C   C534      1.0  0.3373712480227503  0.5339879074056737  0.4242447841332797  1.0000
  H   H337      1.0  0.4149187364104417  0.5384671028942556  0.4359293908300814  1.0000
  H   H338      1.0  0.41174994460194986  0.5650467830512865  0.39711590934140945  1.0000
  H   H339      1.0  0.3147305730209882  0.5530698782266121  0.3923881112166678  1.0000
  H   H340      1.0  0.3159026390972816  0.5274920233940182  0.433432516466347  1.0000
  C   C535      1.0  0.32568570223664906  0.5462316429529271  0.33928600310089324  1.0000
  C   C536      1.0  0.33475153853446  0.5752022238591787  0.3461643658117172  1.0000
  C   C537      1.0  0.31942258478886654  0.5986902923055227  0.3341640623562824  1.0000
  C   C538      1.0  0.293215203886288  0.5934930805845103  0.31873892739810067  1.0000
  C   C539      1.0  0.2833087459058494  0.5646822550950794  0.3146654825548895  1.0000
  C   C540      1.0  0.30022151227062366  0.540829004720204  0.3242033512929862  1.0000
  C   C541      1.0  0.36350128087313466  0.580520398212843  0.3654237814020245  1.0000
  C   C542      1.0  0.3903794948811174  0.5742517964768313  0.34624663830033064  1.0000
  C   C543      1.0  0.39961360078606367  0.5973260212567216  0.3300580911803635  1.0000
  C   C544      1.0  0.42575736720611335  0.5932913904957658  0.315264349739448  1.0000
  C   C545      1.0  0.442726368839368  0.5669708418873882  0.31562213939923217  1.0000
  C   C546      1.0  0.4333768578371275  0.5438057577491231  0.3309803083783099  1.0000
  C   C547      1.0  0.40691093599722866  0.5470100507175064  0.3450661237544118  1.0000
  C   C548      1.0  0.33999642315316053  0.6245668174297082  0.39044418450896345  1.0000
  C   C549      1.0  0.34245494316790537  0.6459138260595251  0.4091793521485708  1.0000
  C   C550      1.0  0.37117882736012753  0.6551296518846189  0.4180992205652222  1.0000
  C   C551      1.0  0.39622210143509745  0.6464411571048596  0.40408802442297903  1.0000
  C   C552      1.0  0.39393606716234786  0.6251216167617702  0.3853872964297679  1.0000
  C   C553      1.0  0.36611692461910494  0.6124420068091067  0.37924938611646514  1.0000
  C   C554      1.0  0.37406552588286146  0.6735636053884618  0.443923215421409  1.0000
  C   C555      1.0  0.33900732137790496  0.7598221092911225  0.41575923792395997  1.0000
  C   C556      1.0  0.32160120609851905  0.7427641013174936  0.43238593387863605  1.0000
  C   C557      1.0  0.33233109055721105  0.7159532975029452  0.44112595080855094  1.0000
  C   C558      1.0  0.3613686216684606  0.7049642945774068  0.43433368721371785  1.0000
  C   C559      1.0  0.37807746172540885  0.722471213409173  0.41723631609162504  1.0000
  C   C560      1.0  0.367535286581448  0.7498617677911248  0.4090301136808534  1.0000
  C   C561      1.0  0.40933379252957414  0.6745474474443202  0.4552136794983415  1.0000
  C   C562      1.0  0.4245166802750282  0.6478527466125468  0.4597692793911015  1.0000
  C   C563      1.0  0.4541357255636939  0.6476323662426001  0.4697931298061243  1.0000
  C   C564      1.0  0.46848228209915405  0.6748825921161297  0.4764916410302119  1.0000
  C   C565      1.0  0.4528760053667013  0.7013259226791908  0.4724679423429065  1.0000
  C   C566      1.0  0.42368632703804326  0.7013420660381632  0.4626602963747051  1.0000
  C   C567      1.0  0.35376944144137357  0.6764738938833723  0.49077261440255976  1.0000
  C   C568      1.0  0.3421939363803474  0.6643673149119  0.5125748238851299  1.0000
  C   C569      1.0  0.3324966250286162  0.6346300060507015  0.5121940744610814  1.0000
  C   C570      1.0  0.3344976104420872  0.6177440978500602  0.49025027976554864  1.0000
  C   C571      1.0  0.3460059061170391  0.6300801171423853  0.4685322560852806  1.0000
  C   C572      1.0  0.3561013854806953  0.6597022096017868  0.46841363063658215  1.0000
  H   H341      1.0  0.337538649445573  0.5263898805517067  0.34680149927004944  1.0000
  H   H342      1.0  0.32789749681846714  0.6214299492864139  0.3369307139501215  1.0000
  H   H343      1.0  0.2814472396348296  0.611981240223458  0.3091685323272963  1.0000
  H   H344      1.0  0.29341340892107  0.5172729562369224  0.3205049159327573  1.0000
  H   H345      1.0  0.38771140879607335  0.618664440732637  0.32863267248229294  1.0000
  H   H346      1.0  0.43286140705292114  0.6110970005887079  0.30266135247207726  1.0000
  H   H347      1.0  0.4456448700261949  0.5230512456891852  0.3312998317643204  1.0000
  H   H348      1.0  0.3992207249803388  0.5271161500095031  0.3552353860097747  1.0000
  H   H349      1.0  0.31712439647118373  0.6158070627623644  0.3866826097970079  1.0000
  H   H350      1.0  0.3219481109781079  0.6531606457245142  0.41956864547813255  1.0000
  H   H351      1.0  0.4191368007667452  0.6547340137339478  0.4088674820173151  1.0000
  H   H352      1.0  0.4149041392841752  0.6167233063960724  0.37753123042402564  1.0000
  H   H353      1.0  0.2997625365398775  0.7519828797484052  0.4387266554429395  1.0000
  H   H354      1.0  0.3175802424934013  0.7028019578859999  0.45352613682492104  1.0000
  H   H355      1.0  0.39980274043626945  0.7140701156507948  0.41038282645875396  1.0000
  H   H356      1.0  0.3812886481719627  0.7632595571683205  0.3963180575332276  1.0000
  H   H357      1.0  0.4123699195398894  0.6271006042273015  0.45504722120742597  1.0000
  H   H358      1.0  0.4651972117145171  0.6263126945122676  0.4742186243680536  1.0000
  H   H359      1.0  0.46350259730776266  0.7230244360412214  0.4768972635322132  1.0000
  H   H360      1.0  0.4135796819316212  0.7225635924817979  0.45974057968577126  1.0000
  H   H361      1.0  0.3617229130083975  0.6992729541685025  0.49173883781534583  1.0000
  H   H362      1.0  0.3406475808824165  0.6781005453050143  0.5302194027221866  1.0000
  H   H363      1.0  0.3284874678500419  0.5936335125964426  0.49030959248989786  1.0000
  H   H364      1.0  0.34684899719384776  0.6142893657197858  0.4526000929995973  1.0000
  C   C573      1.0  0.2931623676471441  0.7568931006585445  0.6829802809405175  1.0000
  C   C574      1.0  0.2774628274999893  0.7360577051691354  0.6676814246857891  1.0000
  C   C575      1.0  0.29389699740289016  0.7129824940083289  0.6563565209624602  1.0000
  C   C576      1.0  0.32603563734375407  0.7103783562564682  0.6603629998265674  1.0000
  C   C577      1.0  0.3400857631512855  0.7311455192911103  0.6766912188458086  1.0000
  C   C578      1.0  0.32381172048630463  0.7535392847056559  0.6877731317306744  1.0000
  H   H365      1.0  0.2524106572302151  0.7387785734477601  0.664884160072931  1.0000
  H   H366      1.0  0.2814963902349993  0.6966581723777493  0.6450488370623296  1.0000
  H   H367      1.0  0.36371311417957647  0.7284402549362993  0.6821192897806092  1.0000
  H   H368      1.0  0.3364419065646081  0.769493711017623  0.700054692298346  1.0000
  C   C579      1.0  0.3880523754366851  0.7203275720805019  0.6322698149355997  1.0000
  C   C580      1.0  0.37993221695512747  0.6911919825453868  0.6387272486349129  1.0000
  C   C581      1.0  0.40054596196335107  0.668160459878316  0.6320019510191838  1.0000
  C   C582      1.0  0.4281812250982329  0.6746376116600147  0.620347957341401  1.0000
  C   C583      1.0  0.43581762718401734  0.7036215702370306  0.6146998553324017  1.0000
  C   C584      1.0  0.4159281707107437  0.7267649052432208  0.6212586946572153  1.0000
  C   C585      1.0  0.34579119896150795  0.6837072530195502  0.6490706224359463  1.0000
  C   C586      1.0  0.331718177983643  0.6695457986625803  0.6234207391254298  1.0000
  C   C587      1.0  0.3322515778166968  0.6385986359429516  0.6179199622704592  1.0000
  C   C588      1.0  0.32022724282043635  0.6272905933675794  0.5951993622173202  1.0000
  C   C589      1.0  0.30783764951043935  0.64626315999162  0.5768258108648743  1.0000
  C   C590      1.0  0.30883691552921505  0.6767707812559141  0.5817698134364373  1.0000
  C   C591      1.0  0.32082713899063164  0.6887978724741768  0.6040962708697072  1.0000
  C   C592      1.0  0.37032435877936626  0.6582057612892911  0.6884447048354031  1.0000
  C   C593      1.0  0.37198406238826043  0.6358319270192397  0.7068354760110471  1.0000
  C   C594      1.0  0.34700461804812993  0.6175959749754837  0.7114503886281562  1.0000
  C   C595      1.0  0.3197069000965639  0.6238347444215866  0.6981298987275285  1.0000
  C   C596      1.0  0.31891230560238104  0.6454341548264381  0.6792148796011848  1.0000
  C   C597      1.0  0.34537734207745435  0.6611672492868235  0.6724149627515967  1.0000
  C   C598      1.0  0.35122035904356  0.5872601868851725  0.7280196851721719  1.0000
  C   C599      1.0  0.3634635428416224  0.5342276302400427  0.6580172772442392  1.0000
  C   C600      1.0  0.3889656883001946  0.5454031021492185  0.6712841943615837  1.0000
  C   C601      1.0  0.3852914402279149  0.5606381882028417  0.6940334941200531  1.0000
  C   C602      1.0  0.35665043317053735  0.5640738160714234  0.7049680818508901  1.0000
  C   C603      1.0  0.33216951939280426  0.5498358187004719  0.6926712147737091  1.0000
  C   C604      1.0  0.33546544193212074  0.5358174046875094  0.6694588931025779  1.0000
  C   C605      1.0  0.3235897181906373  0.5779931009116315  0.7452643814482934  1.0000
  C   C606      1.0  0.3034262160791121  0.5993296304933468  0.7550548075932966  1.0000
  C   C607      1.0  0.28019928965306184  0.5913670317664785  0.7709793174242251  1.0000
  C   C608      1.0  0.2773316170910257  0.5616328721858004  0.7784163677321453  1.0000
  C   C609      1.0  0.2974002812025873  0.5400359946477429  0.7696993105664947  1.0000
  C   C610      1.0  0.3196485781727811  0.5482412636462426  0.7532849924312626  1.0000
  C   C611      1.0  0.39842490446726486  0.5664100990693764  0.7554164238804582  1.0000
  C   C612      1.0  0.42248689216381335  0.5699114233444869  0.772737652704127  1.0000
  C   C613      1.0  0.4253911650162953  0.5965521390409297  0.7860466627226227  1.0000
  C   C614      1.0  0.4040961304296237  0.6189660945064268  0.7830083205849903  1.0000
  C   C615      1.0  0.3804764228628208  0.6154316984487932  0.7649944722060172  1.0000
  C   C616      1.0  0.3779073364184598  0.589644377544211  0.7497817150672796  1.0000
  H   H369      1.0  0.37294104544583584  0.7391646229123152  0.6354841819325912  1.0000
  H   H370      1.0  0.3953167559958764  0.6440342459019891  0.6352794573679018  1.0000
  H   H371      1.0  0.4440493962614652  0.6561810790468724  0.615811490585528  1.0000
  H   H372      1.0  0.42137608667778814  0.7494403841973819  0.6154230879067248  1.0000
  H   H373      1.0  0.3421595478691789  0.6220594354915082  0.631380124070361  1.0000
  H   H374      1.0  0.31848610497069424  0.6032140471500173  0.5918089703609696  1.0000
  H   H375      1.0  0.2997097776653494  0.6918521736772929  0.5673147285184191  1.0000
  H   H376      1.0  0.32293450646423577  0.7133378626392124  0.6065950585471304  1.0000
  H   H377      1.0  0.39036226262924717  0.672433859405332  0.6852150313289022  1.0000
  H   H378      1.0  0.39415611108649257  0.6327184434681482  0.7167158278994186  1.0000
  H   H379      1.0  0.30017735365779996  0.6088929603011975  0.6999896396329308  1.0000
  H   H380      1.0  0.2980349674892934  0.6480702353318682  0.6680545208550828  1.0000
  H   H381      1.0  0.41215679695416035  0.5428535274353755  0.663345855867228  1.0000
  H   H382      1.0  0.4053034406014669  0.5720391828508274  0.701338525783454  1.0000
  H   H383      1.0  0.3090213889904048  0.5522996019410954  0.6990444626707202  1.0000
  H   H384      1.0  0.3154036312038199  0.5267746828962734  0.6595919344100272  1.0000
  H   H385      1.0  0.3060139421130274  0.6230777738906291  0.750460941426763  1.0000
  H   H386      1.0  0.26537427151261617  0.6081460697974245  0.7779763055837476  1.0000
  H   H387      1.0  0.29509312190791054  0.5169299015109696  0.7754947377295227  1.0000
  H   H388      1.0  0.3341549372568625  0.5305259551227384  0.746969143944912  1.0000
  H   H389      1.0  0.3966658979552503  0.5454340810482533  0.7443479041914131  1.0000
  H   H390      1.0  0.4383732576464392  0.5509848384276417  0.7760304655623546  1.0000
  H   H391      1.0  0.4043154003931592  0.6388822331975067  0.7956668039493329  1.0000
  H   H392      1.0  0.3632180512890029  0.6329301888286921  0.7628668673841991  1.0000
  C   C617      1.0  0.5509458577204406  0.35686473797124696  0.42577926171160535  1.0000
  C   C618      1.0  0.5416433588790057  0.3827961369585159  0.4132279239138292  1.0000
  C   C619      1.0  0.5195950350847404  0.38158518003043607  0.3936145452911151  1.0000
  C   C620      1.0  0.5064378778805486  0.3545644123142029  0.38593833077210926  1.0000
  C   C621      1.0  0.5149789163955405  0.32834594638853476  0.3996166103325212  1.0000
  C   C622      1.0  0.536480278165235  0.33009103745886714  0.4189276853924229  1.0000
  H   H393      1.0  0.5520066258624454  0.4039839757667463  0.418587115555837  1.0000
  H   H394      1.0  0.5119535707375156  0.40280510118936114  0.3854523490951832  1.0000
  H   H395      1.0  0.5054663203545052  0.3064967158126066  0.3950399639891857  1.0000
  H   H396      1.0  0.5426851404725125  0.3093915461696747  0.42863583904881264  1.0000
  C   C623      1.0  0.5145380378163348  0.31279685203671914  0.34051626380271793  1.0000
  C   C624      1.0  0.48471703758649654  0.32165893252133243  0.3472530413005792  1.0000
  C   C625      1.0  0.4602011780780247  0.3033740247163622  0.33946776790131833  1.0000
  C   C626      1.0  0.46591973192151853  0.2767323956625206  0.3268494641244381  1.0000
  C   C627      1.0  0.49524675089004805  0.2675733579680852  0.32193990119927135  1.0000
  C   C628      1.0  0.5199253119405803  0.2856241015749327  0.32908612782651137  1.0000
  C   C629      1.0  0.48119697291221414  0.3522918881648017  0.36346072155743325  1.0000
  C   C630      1.0  0.48267962439204404  0.37568350845548476  0.3398657371485649  1.0000
  C   C631      1.0  0.4555179672171971  0.38156890411901917  0.326533767365805  1.0000
  C   C632      1.0  0.4543104591527637  0.40216327635270777  0.3076704077090557  1.0000
  C   C633      1.0  0.4796943951677031  0.4193067678948707  0.30268048560896416  1.0000
  C   C634      1.0  0.5075669845879024  0.4125003705511723  0.3144971109502852  1.0000
  C   C635      1.0  0.5093850337981901  0.3901204437215632  0.33243825340908817  1.0000
  C   C636      1.0  0.4370435118804697  0.3322914117842188  0.3914352809997025  1.0000
  C   C637      1.0  0.41204610455362695  0.33578711820831575  0.40676666358713853  1.0000
  C   C638      1.0  0.4003100076854952  0.3642916853364724  0.41157482088680497  1.0000
  C   C639      1.0  0.4139118749991709  0.3886792036486823  0.39935639967086  1.0000
  C   C640      1.0  0.4398007515369796  0.38542153787311273  0.38538538311607917  1.0000
  C   C641      1.0  0.45085994762986364  0.3565162527182399  0.38032466840950635  1.0000
  C   C642      1.0  0.3716932497267772  0.3688350782354394  0.4297359944198068  1.0000
  C   C643      1.0  0.2947184525215512  0.33877268551521045  0.3797334544797026  1.0000
  C   C644      1.0  0.3058370161749571  0.3206972529784765  0.3994788517469359  1.0000
  C   C645      1.0  0.33055917286736486  0.32971246655526637  0.4143606056175309  1.0000
  C   C646      1.0  0.344064773067381  0.35777108432756943  0.4109434273695388  1.0000
  C   C647      1.0  0.3339860672862117  0.3750867719179212  0.39080197416874757  1.0000
  C   C648      1.0  0.30977619788952293  0.3658421847244178  0.3747798853396961  1.0000
  C   C649      1.0  0.36603957256212827  0.40237986383125923  0.44110490435797545  1.0000
  C   C650      1.0  0.3902510905770729  0.4199675020832787  0.45157647017615066  1.0000
  C   C651      1.0  0.3842757610836627  0.44842473506767355  0.46040067290836767  1.0000
  C   C652      1.0  0.35469103610692054  0.4602532935135516  0.45914171250121266  1.0000
  C   C653      1.0  0.33066321586818725  0.4433793420394861  0.4495081780786817  1.0000
  C   C654      1.0  0.3360370937021346  0.41462453362806023  0.4419065827935346  1.0000
  C   C655      1.0  0.3500173772629846  0.3454670541229321  0.4720623198409052  1.0000
  C   C656      1.0  0.3540484376389805  0.33432341189035053  0.4957835829532267  1.0000
  C   C657      1.0  0.3830977848576063  0.32817515078877413  0.5048392966417747  1.0000
  C   C658      1.0  0.4084779602644962  0.3319880416502328  0.4898637904004342  1.0000
  C   C659      1.0  0.40490053846619817  0.3440110619336735  0.4659607624876875  1.0000
  C   C660      1.0  0.3756054494044405  0.35142819467159253  0.4564554200822984  1.0000
  H   H397      1.0  0.5338139253380196  0.32792183216552934  0.34394874856021956  1.0000
  H   H398      1.0  0.4367423384710403  0.31005110584605233  0.34331735504295335  1.0000
  H   H399      1.0  0.4462535679463861  0.2629605043898154  0.32035759077872855  1.0000
  H   H400      1.0  0.5438221334807607  0.2802236950104993  0.32543743862218827  1.0000
  H   H401      1.0  0.4345620247730754  0.36932895162383894  0.3308081101463282  1.0000
  H   H402      1.0  0.4339179601290904  0.4065941997975045  0.2961292995389053  1.0000
  H   H403      1.0  0.5275428504371173  0.4264502192317444  0.30997212407654423  1.0000
  H   H404      1.0  0.5309492739318064  0.38657715967585193  0.34290599259988597  1.0000
  H   H405      1.0  0.44662088552220447  0.3097790430115468  0.38983001081489543  1.0000
  H   H406      1.0  0.40251061273161454  0.3155805442760672  0.41478918788379643  1.0000
  H   H407      1.0  0.4058832498133526  0.4109510364259131  0.4014361716504611  1.0000
  H   H408      1.0  0.45088677968923474  0.4050902299793481  0.3780229520420178  1.0000
  H   H409      1.0  0.29414054066322465  0.299807283233766  0.40383738032976124  1.0000
  H   H410      1.0  0.3375641508917494  0.31440643913646427  0.42929593227140916  1.0000
  H   H411      1.0  0.3452346870806286  0.39627657897208857  0.38708249235794323  1.0000
  H   H412      1.0  0.3028634256328904  0.3796359566034625  0.35857220508284204  1.0000
  H   H413      1.0  0.4132064799513779  0.41032160043734406  0.45331949894654305  1.0000
  H   H414      1.0  0.4021875190484304  0.4612255849567354  0.47013943958377635  1.0000
  H   H415      1.0  0.3074223259849383  0.4516932722495915  0.44878303219066995  1.0000
  H   H416      1.0  0.31597439314931774  0.4014696052646237  0.43499952037738027  1.0000
  H   H417      1.0  0.326924061340308  0.3507444878600223  0.464990712447524  1.0000
  H   H418      1.0  0.3341323441332201  0.33259769464939953  0.5082736947129651  1.0000
  H   H419      1.0  0.43083448773177285  0.32708030505335145  0.4978002155811012  1.0000
  H   H420      1.0  0.4261782072508157  0.34861823052647695  0.455703487802645  1.0000
  C   C661      1.0  0.30195145335748336  0.3274166244064411  0.6971675019421198  1.0000
  C   C662      1.0  0.3159914507161797  0.31382186327199846  0.6771676339542914  1.0000
  C   C663      1.0  0.3406431655761397  0.3264955849888438  0.665590172824056  1.0000
  C   C664      1.0  0.3503529220015366  0.3558163962426975  0.6718447952723685  1.0000
  C   C665      1.0  0.3368887256918686  0.3686048147836605  0.6931571964506352  1.0000
  C   C666      1.0  0.31266300305468164  0.35495091613165947  0.7050465277121263  1.0000
  H   H421      1.0  0.30757033516022575  0.2921389619566423  0.6697841564296544  1.0000
  H   H422      1.0  0.35227835614015446  0.3151559250577385  0.6503276695294126  1.0000
  H   H423      1.0  0.34367107303735966  0.39088407080903265  0.699300846705004  1.0000
  H   H424      1.0  0.30226056088432085  0.3683283646434946  0.7205348020220346  1.0000
  C   C667      1.0  0.3387524673267958  0.41773842098182107  0.6472644543138273  1.0000
  C   C668      1.0  0.3688968699201565  0.40732969456425416  0.649047662671682  1.0000
  C   C669      1.0  0.39131686092234114  0.4267910384162099  0.6415359931299031  1.0000
  C   C670      1.0  0.38504655956257483  0.4554642470587612  0.6331690723692818  1.0000
  C   C671      1.0  0.3549319997008527  0.46606253040807616  0.6318393193556455  1.0000
  C   C672      1.0  0.3318073488613662  0.4465357919089412  0.6383197128192231  1.0000
  C   C673      1.0  0.37673704316430034  0.3732063530172261  0.6559049789319306  1.0000
  C   C674      1.0  0.38254351574108414  0.3604852310520428  0.6273353789324801  1.0000
  C   C675      1.0  0.4116459836791067  0.35825330551425194  0.616808327017333  1.0000
  C   C676      1.0  0.41499694735652964  0.35231175957719413  0.590827440438674  1.0000
  C   C677      1.0  0.3890701779878342  0.3500710265933479  0.5758079279824936  1.0000
  C   C678      1.0  0.36019518354820185  0.35082461541396665  0.5858547381617807  1.0000
  C   C679      1.0  0.3568892355413665  0.3552783912345304  0.6115773273924672  1.0000
  C   C680      1.0  0.4116142064217728  0.39240668238878024  0.6932777352130224  1.0000
  C   C681      1.0  0.43755843250115795  0.39104191110244413  0.7082647213364951  1.0000
  C   C682      1.0  0.4565290016851022  0.36595069242837286  0.7088482820115442  1.0000
  C   C683      1.0  0.4485067944005091  0.3418973315464294  0.6930194378650498  1.0000
  C   C684      1.0  0.42308968318911283  0.3439201719839452  0.6765936398476857  1.0000
  C   C685      1.0  0.4044342054094878  0.36976033507000017  0.6756695093360507  1.0000
  C   C686      1.0  0.489106694402136  0.3654494629650028  0.7239213672510078  1.0000
  C   C687      1.0  0.5530596633350593  0.3834162244895269  0.6616200469200337  1.0000
  C   C688      1.0  0.5374773862526089  0.4068876578490272  0.672669433472192  1.0000
  C   C689      1.0  0.5157675081993688  0.400993946167527  0.6908765265337222  1.0000
  C   C690      1.0  0.5107729823190884  0.3717158460970016  0.7002785499999222  1.0000
  C   C691      1.0  0.5241618976646726  0.34846162216596593  0.6862807470534998  1.0000
  C   C692      1.0  0.5456504908739221  0.35393381099030474  0.6677713504291574  1.0000
  C   C693      1.0  0.4987278261749047  0.33486256910171963  0.738393671992224  1.0000
  C   C694      1.0  0.4773899609511129  0.31333852656533095  0.7454136199160109  1.0000
  C   C695      1.0  0.48698360646024597  0.28589563917941846  0.7557187274432704  1.0000
  C   C696      1.0  0.5181761011673831  0.28052405797991375  0.7599777637142842  1.0000
  C   C697      1.0  0.5395710106118448  0.3028512283290417  0.7552576188442972  1.0000
  C   C698      1.0  0.5296827969279029  0.3300824814586534  0.7456298243628322  1.0000
  C   C699      1.0  0.5148933482711585  0.4088286720639358  0.7511688674915765  1.0000
  C   C700      1.0  0.513931216403447  0.43058164501357016  0.7699748277376653  1.0000
  C   C701      1.0  0.4890452380799914  0.4318683817260571  0.7857213993955462  1.0000
  C   C702      1.0  0.4655003158509524  0.4110120321390057  0.7833890700090387  1.0000
  C   C703      1.0  0.46644684761389466  0.3896870829972982  0.7645850230766386  1.0000
  C   C704      1.0  0.49027429503728304  0.38889547936410523  0.7471470821179599  1.0000
  H   H425      1.0  0.31926180379035646  0.4037492927741354  0.651431651527784  1.0000
  H   H426      1.0  0.4151918550658918  0.4190284313561089  0.641317875369393  1.0000
  H   H427      1.0  0.4032896025049327  0.4697889460788864  0.6261242513675422  1.0000
  H   H428      1.0  0.3078155283228637  0.4533335901288843  0.6356008940676011  1.0000
  H   H429      1.0  0.4326300328376384  0.3625225468582427  0.6277716144535003  1.0000
  H   H430      1.0  0.4379823293523136  0.3521787297180795  0.5834477895414144  1.0000
  H   H431      1.0  0.34016400489566884  0.3483739876404138  0.5741108187406296  1.0000
  H   H432      1.0  0.33381495010015905  0.35694208849396036  0.6189340185254625  1.0000
  H   H433      1.0  0.3983767785542218  0.4128712784419367  0.6926865212832186  1.0000
  H   H434      1.0  0.44176446374733647  0.4118498949088794  0.7182158658313479  1.0000
  H   H435      1.0  0.4628780638934174  0.32208614476370206  0.69242248399418  1.0000
  H   H436      1.0  0.41723031005416256  0.3245821549370722  0.6642776396336177  1.0000
  H   H437      1.0  0.5430420410322199  0.4300766262996952  0.6683625643589611  1.0000
  H   H438      1.0  0.5051653277471928  0.42020366849334967  0.6998270079693926  1.0000
  H   H439      1.0  0.5205837312348168  0.3253911772179867  0.6912094431155534  1.0000
  H   H440      1.0  0.5576729663041041  0.3349506295020453  0.6585644849592032  1.0000
  H   H441      1.0  0.4530970028206724  0.318072258192159  0.7417764105938198  1.0000
  H   H442      1.0  0.4708069222684741  0.268451478029757  0.761035826184127  1.0000
  H   H443      1.0  0.5638884525303157  0.30077355017036084  0.759656327014585  1.0000
  H   H444      1.0  0.5467708817954127  0.3461178054247771  0.7413459150138656  1.0000
  H   H445      1.0  0.5353659002441983  0.4074987887007105  0.7391322110760566  1.0000
  H   H446      1.0  0.5329821066341653  0.4465890341507935  0.7727835722326555  1.0000
  H   H447      1.0  0.44749264393171945  0.41078247396901085  0.7971228356664225  1.0000
  H   H448      1.0  0.4475449745746072  0.37327605774001965  0.7627769416408308  1.0000
  C   C705      1.0  0.04493758136138963  0.21421609862693483  0.6392323634487259  1.0000
  C   C706      1.0  0.027193328027976686  0.19419675166478298  0.6523289956477775  1.0000
  C   C707      1.0  0.013360610635379855  0.2027825396574765  0.6743856758509428  1.0000
  C   C708      1.0  0.01702149050198214  0.23186677371515343  0.6845855511253246  1.0000
  C   C709      1.0  0.03651821044102562  0.25122215044022844  0.6718888014872083  1.0000
  C   C710      1.0  0.050674566468060046  0.24251693590251064  0.6495298177212306  1.0000
  H   H449      1.0  0.0205928672677133  0.1725061308437183  0.6440653938263453  1.0000
  H   H450      1.0  0.9986239870294725  0.1862611891523955  0.6830797732523292  1.0000
  H   H451      1.0  0.040062954715822656  0.2739498437756025  0.6783041422853704  1.0000
  H   H452      1.0  0.0634071601699867  0.25956942767205715  0.6394370880134153  1.0000
  C   C711      1.0  0.043247056274416655  0.26919215632134774  0.7312627518744937  1.0000
  C   C712      1.0  0.011876245018604514  0.2688971173293579  0.7248034048614918  1.0000
  C   C713      1.0  0.9933423922396565  0.2917236168474884  0.7345785244969855  1.0000
  C   C714      1.0  0.005485711154006312  0.31322721106954193  0.7512243535885483  1.0000
  C   C715      1.0  0.03645699069422868  0.3131542791931083  0.7572876446679925  1.0000
  C   C716      1.0  0.05539171672916741  0.2906734145251515  0.7476789833234143  1.0000
  C   C717      1.0  0.9972460499011695  0.24233980439107894  0.7087889692871949  1.0000
  C   C718      1.0  0.9920103527488654  0.21832656719848256  0.7312417054239181  1.0000
  C   C719      1.0  0.9674268775221061  0.22219349240913555  0.7474570389355268  1.0000
  C   C720      1.0  0.9612886568193093  0.20106939242081096  0.7659166894039636  1.0000
  C   C721      1.0  0.980102747067177  0.17570924458866916  0.7677094643302618  1.0000
  C   C722      1.0  0.005788239188477373  0.17342290038023517  0.7527588311668741  1.0000
  C   C723      1.0  0.012660350327961645  0.19494430049327757  0.735560054419281  1.0000
  C   C724      1.0  0.9628604224313085  0.27506804745254637  0.6774469777528394  1.0000
  C   C725      1.0  0.9457718713742712  0.27335717421301825  0.6549731951655406  1.0000
  C   C726      1.0  0.9292153196214717  0.24782450085070695  0.6486573466791902  1.0000
  C   C727      1.0  0.9240558544451187  0.22770281612342738  0.668113833579432  1.0000
  C   C728      1.0  0.943034262886139  0.22762579625220952  0.6889651261587255  1.0000
  C   C729      1.0  0.9658550490981682  0.2495480340049162  0.6928338464372473  1.0000
  C   C730      1.0  0.918242792076252  0.23964230187226174  0.6199021552519374  1.0000
  C   C731      1.0  0.832646291732063  0.29318692513090255  0.6167872805667576  1.0000
  C   C732      1.0  0.8592864657895133  0.3033708509075957  0.6061549963987327  1.0000
  C   C733      1.0  0.8860323333459174  0.2870801696789571  0.6078425390721532  1.0000
  C   C734      1.0  0.8870378467708295  0.2585120905355878  0.6181839995594979  1.0000
  C   C735      1.0  0.8594765716613185  0.24786933259808186  0.6289196026667117  1.0000
  C   C736      1.0  0.8332114396137154  0.26561184254824516  0.6283226487958418  1.0000
  C   C737      1.0  0.9156924209312789  0.2039508281637854  0.6142157869691643  1.0000
  C   C738      1.0  0.9392492511229465  0.18506108794243328  0.6229003178021073  1.0000
  C   C739      1.0  0.9368700811189538  0.15434730130591537  0.6211113695031866  1.0000
  C   C740      1.0  0.9098686387992275  0.14107090938379052  0.6120135629134874  1.0000
  C   C741      1.0  0.8867150400295487  0.15917230167013008  0.6023130625118525  1.0000
  C   C742      1.0  0.8902934760473811  0.19065636985013734  0.6018787403045208  1.0000
  C   C743      1.0  0.933854836097555  0.25525997577636045  0.573743462512402  1.0000
  C   C744      1.0  0.9547154935340619  0.26396757808148547  0.5562175091240439  1.0000
  C   C745      1.0  0.9859393250524321  0.2647384912521493  0.5621813078916762  1.0000
  C   C746      1.0  0.9953402214419999  0.2582534353684294  0.5867386890859533  1.0000
  C   C747      1.0  0.9745587785953927  0.24907805695373417  0.6041154040065941  1.0000
  C   C748      1.0  0.9429835015710075  0.24880129602722048  0.5987389925413881  1.0000
  H   H453      1.0  0.05867266244402407  0.2512388536961947  0.7251879809129175  1.0000
  H   H454      1.0  0.9684624892485663  0.2918085038597755  0.7307174574732184  1.0000
  H   H455      1.0  0.9900113380498479  0.33080752303520616  0.7581754222195425  1.0000
  H   H456      1.0  0.07939081108554547  0.2894501197730436  0.7537480143439245  1.0000
  H   H457      1.0  0.9520931071342037  0.24126605957393946  0.7446597743226687  1.0000
  H   H458      1.0  0.94073711824745  0.2033635540850226  0.7771306209333486  1.0000
  H   H459      1.0  0.01937516488561653  0.15312026265824363  0.7537537542849906  1.0000
  H   H460      1.0  0.03300579263297149  0.19229404354131924  0.7237223826273845  1.0000
  H   H461      1.0  0.9787653528966666  0.2936683107462849  0.6802461556793862  1.0000
  H   H462      1.0  0.9480842868156976  0.29197877051156607  0.6419243958087063  1.0000
  H   H463      1.0  0.9076655213421874  0.20922869883326872  0.665182637008366  1.0000
  H   H464      1.0  0.9405774682761813  0.20844543219481504  0.7012581666085291  1.0000
  H   H465      1.0  0.8598645017195483  0.3252247777672566  0.596653480620721  1.0000
  H   H466      1.0  0.9065059791466531  0.29725993628625885  0.6004456683516955  1.0000
  H   H467      1.0  0.8584284517254488  0.22723022566342926  0.6400015155515775  1.0000
  H   H468      1.0  0.8119683220703642  0.25844179446382004  0.6378566909065612  1.0000
  H   H469      1.0  0.9596107441407848  0.19474348683778053  0.6313227246597004  1.0000
  H   H470      1.0  0.9549071511194723  0.14097661690948984  0.62937305801093  1.0000
  H   H471      1.0  0.8653379918852224  0.14970170396355756  0.5949353249282815  1.0000
  H   H472      1.0  0.8716537564324693  0.20362250270600046  0.5933664077035595  1.0000
  H   H473      1.0  0.9097923281649158  0.25421165788947275  0.568179546305705  1.0000
  H   H474      1.0  0.9470908786297181  0.26856853656537083  0.5367189293226509  1.0000
  H   H475      1.0  0.019621888959083927  0.2591402828275054  0.5924881967204529  1.0000
  H   H476      1.0  0.9839580311034882  0.24214810780661805  0.6224334692620681  1.0000
  C   C749      1.0  0.8526983635468146  0.28465324565350103  0.45125503347645146  1.0000
  C   C750      1.0  0.8797832014505607  0.2895700410843906  0.46539633494952526  1.0000
  C   C751      1.0  0.9043494665218148  0.27028114733268604  0.462308246655987  1.0000
  C   C752      1.0  0.9027147118098995  0.24575818672079802  0.4455839717031879  1.0000
  C   C753      1.0  0.8751502101876871  0.24181500173056786  0.43168948769595455  1.0000
  C   C754      1.0  0.8511460990640036  0.2613905381270348  0.43413278927640586  1.0000
  H   H477      1.0  0.8808818091427151  0.3079083620545794  0.478923462728531  1.0000
  H   H478      1.0  0.924834252957127  0.2768140005951575  0.4736886364762878  1.0000
  H   H479      1.0  0.8719262509981638  0.2245238097049795  0.41786770960889125  1.0000
  H   H480      1.0  0.8305985257256708  0.25569191617037845  0.4236516568897872  1.0000
  C   C755      1.0  0.8979215012995095  0.1752258617037135  0.4510005627558563  1.0000
  C   C756      1.0  0.924699811027459  0.18705340196477566  0.44185492332394005  1.0000
  C   C757      1.0  0.9480245831938674  0.16702088861757164  0.43534391684134366  1.0000
  C   C758      1.0  0.9430456565129346  0.1363956129393741  0.4348808949286818  1.0000
  C   C759      1.0  0.9141598946551536  0.12577933540445774  0.44045437770382234  1.0000
  C   C760      1.0  0.891486801514808  0.14505388977572106  0.4496784629969747  1.0000
  C   C761      1.0  0.9311617901564103  0.22344981367201272  0.44051560374186033  1.0000
  C   C762      1.0  0.9567167238872442  0.22661158830725228  0.4631730644432728  1.0000
  C   C763      1.0  0.9870684410242141  0.23550954425582205  0.4595205486115724  1.0000
  C   C764      1.0  0.0068876823366212925  0.24011772716637103  0.4799719586299306  1.0000
  C   C765      1.0  0.9977545482640536  0.23370262962240054  0.5042346895161501  1.0000
  C   C766      1.0  0.968866904058003  0.22110693422840821  0.5075542887660194  1.0000
  C   C767      1.0  0.948672122298881  0.21835267070247966  0.48786246428206925  1.0000
  C   C768      1.0  0.9312860426604873  0.21247516022538415  0.3915194668020046  1.0000
  C   C769      1.0  0.9502475735420813  0.2089369047371521  0.37116372246808066  1.0000
  C   C770      1.0  0.9760011406139751  0.22712954715178757  0.36805841435134423  1.0000
  C   C771      1.0  0.9776701777959445  0.2524969952253971  0.3843330605873022  1.0000
  C   C772      1.0  0.9601731917109263  0.2543311844830377  0.40559762892335177  1.0000
  C   C773      1.0  0.9408168473739594  0.2308556858650195  0.4116264803563995  1.0000
  C   C774      1.0  0.005001240213691194  0.21559373912415716  0.35194065983785844  1.0000
  C   C775      1.0  0.055686694639845165  0.19026944363673684  0.42196985415743277  1.0000
  C   C776      1.0  0.036282047229690306  0.17005879185120404  0.4098030924110823  1.0000
  C   C777      1.0  0.020394494574029066  0.17738502384092197  0.38759908705388824  1.0000
  C   C778      1.0  0.026064463389794585  0.20470041394757596  0.37564470312698184  1.0000
  C   C779      1.0  0.04741157363973341  0.22420699553315146  0.3873847959207555  1.0000
  C   C780      1.0  0.061053808843359404  0.21760006731273246  0.41076740251017974  1.0000
  C   C781      1.0  0.021663983038870127  0.24086802185856093  0.33535414347064474  1.0000
  C   C782      1.0  0.005896997026290096  0.26672569273104435  0.3274425913679306  1.0000
  C   C783      1.0  0.021335191949227787  0.28854663234876493  0.31513041778124007  1.0000
  C   C784      1.0  0.052301929634324236  0.2851738673339559  0.30971765335594903  1.0000
  C   C785      1.0  0.06796601127278605  0.2593936986496362  0.3168906663748306  1.0000
  C   C786      1.0  0.052415931786835096  0.23741141891795967  0.32940373789883315  1.0000
  C   C787      1.0  0.014283523466822823  0.1662838015577463  0.32589089396640675  1.0000
  C   C788      1.0  0.004037443707348265  0.14499251499483862  0.30819465565975546  1.0000
  C   C789      1.0  0.9762844970858555  0.14877406438571364  0.29469814089976865  1.0000
  C   C790      1.0  0.9613938963922246  0.17630943493917656  0.2967721729383036  1.0000
  C   C791      1.0  0.9713046968848629  0.19741958885391359  0.3142330736612466  1.0000
  C   C792      1.0  0.9965542829545291  0.19180910737344936  0.33017097668799594  1.0000
  H   H481      1.0  0.8787086393334583  0.18884713474438436  0.45873991662658875  1.0000
  H   H482      1.0  0.9701390531156387  0.17492557379610624  0.428603312716105  1.0000
  H   H483      1.0  0.9594161843713008  0.11952463775312351  0.42878890414390747  1.0000
  H   H484      1.0  0.8689505213519358  0.1369561398932001  0.45491520256290663  1.0000
  H   H485      1.0  0.9984874665204689  0.2382771109678485  0.4417267313067982  1.0000
  H   H486      1.0  0.029515294150955083  0.24918363622724027  0.47607071201870116  1.0000
  H   H487      1.0  0.9619143123926874  0.2157596665777974  0.5268251842384587  1.0000
  H   H488      1.0  0.9259995966174482  0.20970212716908893  0.4913427818817879  1.0000
  H   H489      1.0  0.9132116510838869  0.19611516865898596  0.3937905701504742  1.0000
  H   H490      1.0  0.9455865206242973  0.1892939245163477  0.35960156784735475  1.0000
  H   H491      1.0  0.9970357489718531  0.26796483054775816  0.3836155679540453  1.0000
  H   H492      1.0  0.9650400171991509  0.27123388490430966  0.4196719644173216  1.0000
  H   H493      1.0  0.030707197112698703  0.14922568218488563  0.41911136350653677  1.0000
  H   H494      1.0  0.002898122539098491  0.16041942132618095  0.3804203340939406  1.0000
  H   H495      1.0  0.05368727539921436  0.24569301676737954  0.379676055069042  1.0000
  H   H496      1.0  0.07654724478265937  0.23425283740729144  0.4188396729627434  1.0000
  H   H497      1.0  0.981328255468651  0.2697814515859056  0.3301996763933262  1.0000
  H   H498      1.0  0.00933810347748576  0.30952930290866815  0.3112865705806711  1.0000
  H   H499      1.0  0.09216950089382209  0.25587375195787176  0.311213864660501  1.0000
  H   H500      1.0  0.06555116230903307  0.21760223833280076  0.33508053961316275  1.0000
  H   H501      1.0  0.035392652943879464  0.16158373831224077  0.33672790269912084  1.0000
  H   H502      1.0  0.017669905651202855  0.12401746788107837  0.3050338614460472  1.0000
  H   H503      1.0  0.941172258234003  0.18213349128674805  0.2855984209963809  1.0000
  H   H504      1.0  0.9581169725230287  0.2184812938215792  0.315842170473431  1.0000
  C   C793      1.0  0.0056977654512417875  0.8735947138042479  0.6343610667973328  1.0000
  C   C794      1.0  0.021803470219210294  0.8982850690524347  0.6438817157122315  1.0000
  C   C795      1.0  0.03870086946208969  0.8961901104264777  0.6669983716989285  1.0000
  C   C796      1.0  0.03864728161642272  0.8697412908225578  0.6812831716986537  1.0000
  C   C797      1.0  0.02269873410271825  0.8449997963259785  0.6708096925667897  1.0000
  C   C798      1.0  0.005719138273481805  0.8473681994507776  0.6481579718064433  1.0000
  H   H505      1.0  0.023970098429551463  0.9178669624606891  0.632973914373036  1.0000
  H   H506      1.0  0.052632290598353004  0.9150798933701899  0.6737466290789218  1.0000
  H   H507      1.0  0.02291937629484823  0.8230612500441938  0.6794157775384967  1.0000
  H   H508      1.0  0.9955348504841094  0.827097784493722  0.6399039365534545  1.0000
  C   C799      1.0  0.0193517697183165  0.8350693686925812  0.7301032837791503  1.0000
  C   C800      1.0  0.04955817751265581  0.8372841163963936  0.722386889672682  1.0000
  C   C801      1.0  0.07016256442859051  0.8142436281196035  0.7303022684027736  1.0000
  C   C802      1.0  0.05937402835984361  0.7890344212101914  0.7430946837253241  1.0000
  C   C803      1.0  0.028704357262031816  0.7876276616990904  0.7494258387211841  1.0000
  C   C804      1.0  0.00896332068646788  0.8097490351390043  0.7420787141566322  1.0000
  C   C805      1.0  0.06055003069598332  0.8662876565207349  0.7065369990756122  1.0000
  C   C806      1.0  0.059411527043724495  0.8919473203486413  0.7280349916816814  1.0000
  C   C807      1.0  0.07982222243500815  0.891063301887708  0.7486853863236629  1.0000
  C   C808      1.0  0.0824061859320982  0.9145774111009418  0.7660774077538131  1.0000
  C   C809      1.0  0.06358724635793442  0.9395628820586223  0.7629147002264163  1.0000
  C   C810      1.0  0.04201285580125722  0.9405557784761038  0.7433491544459193  1.0000
  C   C811      1.0  0.03919252191293614  0.9164197528798723  0.7268544771357625  1.0000
  C   C812      1.0  0.10150031951685318  0.8400725103299219  0.678045844937398  1.0000
  C   C813      1.0  0.125939680969127  0.8415967329529119  0.6621041152832712  1.0000
  C   C814      1.0  0.14359108556070482  0.8670276571967216  0.6609905667164563  1.0000
  C   C815      1.0  0.14003541943009554  0.888108420781422  0.6803724343828393  1.0000
  C   C816      1.0  0.11458292318993908  0.8878855563253559  0.6956904237744547  1.0000
  C   C817      1.0  0.09365347453533385  0.8638951758465454  0.6941750793330159  1.0000
  C   C818      1.0  0.16748399030905994  0.8728266047458098  0.6383024929960248  1.0000
  C   C819      1.0  0.24954280587134928  0.8276297887451479  0.6702069987548538  1.0000
  C   C820      1.0  0.22897846292617793  0.8119691944312831  0.6541351637698966  1.0000
  C   C821      1.0  0.2029559092724143  0.8259729437501134  0.6450354438665088  1.0000
  C   C822      1.0  0.1968562703679049  0.8567174336118393  0.6506701526796872  1.0000
  C   C823      1.0  0.2168019970741754  0.8710236382518595  0.6680526075413941  1.0000
  C   C824      1.0  0.24348623161049554  0.8575236874969255  0.6767447916290918  1.0000
  C   C825      1.0  0.17209433545649358  0.9076811160583248  0.6311447864866527  1.0000
  C   C826      1.0  0.146495183943865  0.9263631407658277  0.6283857881475683  1.0000
  C   C827      1.0  0.14969489339299194  0.9555891703941184  0.6197835298032388  1.0000
  C   C828      1.0  0.17822683964820943  0.9668830633419351  0.6145085239635332  1.0000
  C   C829      1.0  0.20401897305435057  0.9488332990665307  0.6173191817722121  1.0000
  C   C830      1.0  0.20063941966392784  0.9197409295054529  0.6256612294548805  1.0000
  C   C831      1.0  0.1796036660126561  0.8550919188681878  0.5914071744863457  1.0000
  C   C832      1.0  0.1700650456339089  0.8493682607052936  0.5665474897292563  1.0000
  C   C833      1.0  0.13937287087334596  0.850687223620432  0.5594797089632524  1.0000
  C   C834      1.0  0.11801306868786085  0.8564285520752715  0.5776370558688768  1.0000
  C   C835      1.0  0.12698450966824973  0.8606377044635795  0.6025560533503155  1.0000
  C   C836      1.0  0.15755122598898863  0.8609408876847487  0.6102380078103874  1.0000
  H   H509      1.0  0.0037637626886124487  0.8539037085059259  0.7266153129246767  1.0000
  H   H510      1.0  0.09411170315379216  0.8157454158720538  0.7260891516602883  1.0000
  H   H511      1.0  0.07505322805803712  0.7709728577288011  0.7485093614643038  1.0000
  H   H512      1.0  0.9850998104381726  0.8084460895673247  0.7475699244431594  1.0000
  H   H513      1.0  0.09532057393940321  0.8721635340751146  0.7516701556780121  1.0000
  H   H514      1.0  0.10130290975872001  0.9151258933924458  0.7804942263980577  1.0000
  H   H515      1.0  0.025558394561710975  0.95891585558433  0.741344001700177  1.0000
  H   H516      1.0  0.0214872117192288  0.9171830879894253  0.7119784632062335  1.0000
  H   H517      1.0  0.08660391951456581  0.8202762138392249  0.6778679067643503  1.0000
  H   H518      1.0  0.13113602688612946  0.8231453612751716  0.6488639845575682  1.0000
  H   H519      1.0  0.15480629835664458  0.9082191691170716  0.6807780568848407  1.0000
  H   H520      1.0  0.11013997087253968  0.9086671131955011  0.7065274325071689  1.0000
  H   H521      1.0  0.23526243835533941  0.7891231067466675  0.647911154340603  1.0000
  H   H522      1.0  0.18759424913547326  0.8144683255615416  0.6308788358839255  1.0000
  H   H523      1.0  0.21316780871556484  0.8946567308907953  0.6722886840481436  1.0000
  H   H524      1.0  0.25885445444139377  0.8709410077502684  0.688670475850668  1.0000
  H   H525      1.0  0.12336914032448246  0.9184852948258515  0.631921591844259  1.0000
  H   H526      1.0  0.12908211729527078  0.9693465099239279  0.6171182838349001  1.0000
  H   H527      1.0  0.22739617791350727  0.9572345286424654  0.6119523368754495  1.0000
  H   H528      1.0  0.22061550985683154  0.905814480671646  0.6270828215255737  1.0000
  H   H529      1.0  0.20436639562442593  0.8576703836735736  0.5963550036852862  1.0000
  H   H530      1.0  0.18711016976476133  0.8475862784361003  0.5514150917654435  1.0000
  H   H531      1.0  0.09372209740212734  0.8586465390154272  0.5718971148028207  1.0000
  H   H532      1.0  0.10854102050047579  0.866102271991905  0.615336988790734  1.0000
  C   C837      1.0  0.27587664982413956  0.8127476706068775  0.40004519259878674  1.0000
  C   C838      1.0  0.25633396629742244  0.8046621929635398  0.41909223036964993  1.0000
  C   C839      1.0  0.23399763542588106  0.824429446183957  0.4267646182612784  1.0000
  C   C840      1.0  0.2297600832323279  0.8526565189398482  0.41520437695424117  1.0000
  C   C841      1.0  0.2496892734117868  0.8597561843473762  0.39527530157289403  1.0000
  C   C842      1.0  0.2723069771174775  0.8404685995362723  0.3883510193335416  1.0000
  H   H533      1.0  0.25770655207384124  0.78274140503902  0.4276562224402058  1.0000
  H   H534      1.0  0.2188678717582408  0.8159755811146168  0.44057874309358697  1.0000
  H   H535      1.0  0.24698584583146233  0.880879301351865  0.38505246653424796  1.0000
  H   H536      1.0  0.2867975854511768  0.8463912920822552  0.37195200770781905  1.0000
  C   C843      1.0  0.2339612353052639  0.9185993345253326  0.43331771764502586  1.0000
  C   C844      1.0  0.20645821031541572  0.9083177039577891  0.4226318606937179  1.0000
  C   C845      1.0  0.18397161425547232  0.9297698311257752  0.4172726690517101  1.0000
  C   C846      1.0  0.1890505975599573  0.9600044791185457  0.4226050743020763  1.0000
  C   C847      1.0  0.21605615462772657  0.9689437112077878  0.43441404638864256  1.0000
  C   C848      1.0  0.23866750967740927  0.9480342549000126  0.4396756590325275  1.0000
  C   C849      1.0  0.19988624553306453  0.8724842187489562  0.420666887535438  1.0000
  C   C850      1.0  0.18097441151255633  0.867947246689046  0.44608525988962355  1.0000
  C   C851      1.0  0.149385278343038  0.875606138318723  0.4466229010361441  1.0000
  C   C852      1.0  0.13389495596523263  0.8785015232397728  0.4685800889274978  1.0000
  C   C853      1.0  0.14875725250795727  0.8723809224579921  0.4912585960794858  1.0000
  C   C854      1.0  0.17967986337440112  0.8634956977258877  0.4911131842391457  1.0000
  C   C855      1.0  0.19583572664424992  0.862281437178142  0.4689837981158104  1.0000
  C   C856      1.0  0.1748860768462785  0.8778285529612893  0.376234003743097  1.0000
  C   C857      1.0  0.15121330514439607  0.8714180934195545  0.3592801311476556  1.0000
  C   C858      1.0  0.13279023212102767  0.8458596978562698  0.36217880138601405  1.0000
  C   C859      1.0  0.14048443040115113  0.8254814231284405  0.3808890959476685  1.0000
  C   C860      1.0  0.16341537816339236  0.8323890813875057  0.3985221949025932  1.0000
  C   C861      1.0  0.17904788432246063  0.8601111843455209  0.39733976704298557  1.0000
  C   C862      1.0  0.10108098418057172  0.8419549496079226  0.3456171580967532  1.0000
  C   C863      1.0  0.03274605751344898  0.8715622477942241  0.40227994298717135  1.0000
  C   C864      1.0  0.05002025824246467  0.8927092517752254  0.3900749149670471  1.0000
  C   C865      1.0  0.07177136018459081  0.8838549253083198  0.37281108555403875  1.0000
  C   C866      1.0  0.07709183633196326  0.8536571630991697  0.36702331164576546  1.0000
  C   C867      1.0  0.06251546176432185  0.8324289542459111  0.3829899143778451  1.0000
  C   C868      1.0  0.038759274079525105  0.8414042351790975  0.3985011484520176  1.0000
  C   C869      1.0  0.09392438580952758  0.8082825778943981  0.33655187783976176  1.0000
  C   C870      1.0  0.11602233366746886  0.7856358680011937  0.33299885431987297  1.0000
  C   C871      1.0  0.1073783001966467  0.7586625469061347  0.32238378997504635  1.0000
  C   C872      1.0  0.07810178872332724  0.7540666154755484  0.3132132774651773  1.0000
  C   C873      1.0  0.05567109631575533  0.7759419793947886  0.3171355705269823  1.0000
  C   C874      1.0  0.06392198291931976  0.8028557040356422  0.3279323996722341  1.0000
  C   C875      1.0  0.07933176775532991  0.8827375436114786  0.31258571057528844  1.0000
  C   C876      1.0  0.08576866795240572  0.9036579179159915  0.2945087228445888  1.0000
  C   C877      1.0  0.11367711834764994  0.9027653125784634  0.2822309889042946  1.0000
  C   C878      1.0  0.13238997615688117  0.8780148051516806  0.28532864376627626  1.0000
  C   C879      1.0  0.12572015125657754  0.8567129864630922  0.30302296875923884  1.0000
  C   C880      1.0  0.10087636771795745  0.8608029265158236  0.31925934872142314  1.0000
  H   H537      1.0  0.2523189256195129  0.9025845718247805  0.43709077223911347  1.0000
  H   H538      1.0  0.1618640951777395  0.9232181894163962  0.40847333939744596  1.0000
  H   H539      1.0  0.17045475122233078  0.975396563710227  0.41697993205734124  1.0000
  H   H540      1.0  0.2602136610250086  0.9542592887425616  0.44974542897607866  1.0000
  H   H541      1.0  0.13775669995477563  0.8800444671317068  0.42903572160974796  1.0000
  H   H542      1.0  0.11047382604370468  0.886843344483031  0.4684710300472427  1.0000
  H   H543      1.0  0.19177012256487702  0.8580888903539191  0.5085243388061829  1.0000
  H   H544      1.0  0.22013536980082468  0.8577649646210803  0.4691464297793486  1.0000
  H   H545      1.0  0.18787257877568012  0.8983437716490499  0.3733429867594933  1.0000
  H   H546      1.0  0.14696154267914635  0.8885980770526397  0.3444787364519854  1.0000
  H   H547      1.0  0.12666774181536175  0.8050371890020429  0.3836060013856018  1.0000
  H   H548      1.0  0.16699254533555852  0.8171064476266223  0.41460933639706  1.0000
  H   H549      1.0  0.04513151054397017  0.916877458617952  0.39226183251321456  1.0000
  H   H550      1.0  0.08403762862663683  0.9013239880085101  0.36243901204767526  1.0000
  H   H551      1.0  0.06705645364211227  0.8084575701059948  0.3815778888755953  1.0000
  H   H552      1.0  0.025630722101497933  0.8247069749381691  0.40829157459702087  1.0000
  H   H553      1.0  0.14003974226902022  0.7889831865280534  0.3372846769825283  1.0000
  H   H554      1.0  0.12470737923086372  0.7414899864341694  0.31890538568901633  1.0000
  H   H555      1.0  0.033486399777262706  0.7724381663919242  0.30829988791263313  1.0000
  H   H556      1.0  0.046750318486273756  0.8203084767737726  0.32735075231087374  1.0000
  H   H557      1.0  0.05857968335864599  0.8839059259024428  0.3234743787775971  1.0000
  H   H558      1.0  0.07063252663728978  0.9226833128836219  0.29191618279642007  1.0000
  H   H559      1.0  0.15285183271236188  0.87662662885961  0.2733608666435491  1.0000
  H   H560      1.0  0.140904731907148  0.837301747084741  0.30604600438736174  1.0000
  C   C881      1.0  0.8982591168055648  0.07006974576259245  0.6544221608231994  1.0000
  C   C882      1.0  0.9140731511470734  0.04727548409662786  0.6653510086129703  1.0000
  C   C883      1.0  0.90182614531683  0.031113022676456204  0.6849452540987976  1.0000
  C   C884      1.0  0.8723756315725291  0.03721830096582439  0.6935302926199288  1.0000
  C   C885      1.0  0.855687462548334  0.0591647405621807  0.6805580258106418  1.0000
  C   C886      1.0  0.868545370124612  0.07595755739094788  0.6613502696899292  1.0000
  H   H561      1.0  0.9382171668918531  0.04313153436689995  0.6592092716722902  1.0000
  H   H562      1.0  0.9144055657693694  0.012628220837849646  0.6938268562416752  1.0000
  H   H563      1.0  0.8314391459807845  0.06269229780649874  0.6847347895930421  1.0000
  H   H564      1.0  0.8551011510688646  0.09389372284089477  0.6525911196231274  1.0000
  C   C887      1.0  0.8333905869226912  0.06483581184261498  0.7375709471060894  1.0000
  C   C888      1.0  0.8291520797994092  0.035208027392263815  0.7295465094957428  1.0000
  C   C889      1.0  0.8007587835550836  0.021849408271608972  0.7352960171302425  1.0000
  C   C890      1.0  0.7772470799355069  0.03801846414074244  0.7458881217108048  1.0000
  C   C891      1.0  0.7820928790323672  0.06756341105622572  0.7533328252734797  1.0000
  C   C892      1.0  0.8102906365161584  0.08080322617376122  0.7498352878505627  1.0000
  C   C893      1.0  0.857117012318283  0.01843919117457915  0.7164403107282479  1.0000
  C   C894      1.0  0.8788817609058924  0.012649023134716941  0.740425611129608  1.0000
  C   C895      1.0  0.8708084560917402  0.9901278788078689  0.7572072854930676  1.0000
  C   C896      1.0  0.8910872228155625  0.9799023810206977  0.7754583847694377  1.0000
  C   C897      1.0  0.9202400679122735  0.9929052963809343  0.7770119954846502  1.0000
  C   C898      1.0  0.9279915292984038  0.01645317690952819  0.7621952942794704  1.0000
  C   C899      1.0  0.9064191340180667  0.027481343719521812  0.745358133819039  1.0000
  C   C900      1.0  0.8243176947882342  0.9871824372897514  0.6844171795207202  1.0000
  C   C901      1.0  0.8211982886066503  0.9652223755531399  0.6662904456341149  1.0000
  C   C902      1.0  0.8453131946234885  0.944986655499761  0.6629096203462077  1.0000
  C   C903      1.0  0.8669321916422548  0.942057387989858  0.6824579463035064  1.0000
  C   C904      1.0  0.8706519770209309  0.9642947892857652  0.7001771443744219  1.0000
  C   C905      1.0  0.8499760402648588  0.9880881186257152  0.7011567609830289  1.0000
  C   C906      1.0  0.8485272849022129  0.9270834150126552  0.636647476655312  1.0000
  C   C907      1.0  0.7810492043642353  0.8566128820153447  0.6546154055057566  1.0000
  C   C908      1.0  0.7718310802216389  0.8817958427172294  0.6416660984607337  1.0000
  C   C909      1.0  0.7929338462370609  0.9031889772930014  0.6357616124174506  1.0000
  C   C910      1.0  0.8239773673506129  0.900848114530799  0.6424964766016232  1.0000
  C   C911      1.0  0.8325512738936617  0.8762943158257133  0.6575274689399357  1.0000
  C   C912      1.0  0.8116860191499574  0.8534363514004912  0.6624102454734608  1.0000
  C   C913      1.0  0.8825135114418985  0.9168619789592652  0.6290420547427874  1.0000
  C   C914      1.0  0.9085363659464539  0.9348766710145485  0.6343476736015121  1.0000
  C   C915      1.0  0.9366169266906024  0.9284114607000704  0.6239966465457241  1.0000
  C   C916      1.0  0.9413371569077752  0.9021537217359167  0.6104522989435202  1.0000
  C   C917      1.0  0.9159823195214281  0.8839282281091771  0.6045918191150768  1.0000
  C   C918      1.0  0.8868348690464949  0.8911995033265857  0.6141296878531736  1.0000
  C   C919      1.0  0.8257792664895494  0.9390676443589201  0.5901003812369735  1.0000
  C   C920      1.0  0.8230988674465255  0.9581027918478415  0.5695016460645865  1.0000
  C   C921      1.0  0.8369784686239041  0.9861730688422025  0.5701139064449658  1.0000
  C   C922      1.0  0.8509498794793373  0.9960604160599694  0.5922088529219048  1.0000
  C   C923      1.0  0.8524117631163027  0.9777872455290123  0.6131998174004725  1.0000
  C   C924      1.0  0.8406204941868932  0.948540359064647  0.6127023558414142  1.0000
  H   H565      1.0  0.8559201684946215  0.07461587452483069  0.7350147600180057  1.0000
  H   H566      1.0  0.7967989459133116  0.9987801345576092  0.7302544355605565  1.0000
  H   H567      1.0  0.7549114068087006  0.027727832170105014  0.7489130706526165  1.0000
  H   H568      1.0  0.8150485720034819  0.1043230587950414  0.7560095511239506  1.0000
  H   H569      1.0  0.8490135504996488  0.9784115938280428  0.7548960025571357  1.0000
  H   H570      1.0  0.8843265225762077  0.9619131281476194  0.7875046077534009  1.0000
  H   H571      1.0  0.9505762039366901  0.026833645033358455  0.7627405886807458  1.0000
  H   H572      1.0  0.9127250150480607  0.04676677009909318  0.7341805552497389  1.0000
  H   H573      1.0  0.806673068211795  0.00424464135308833  0.6839771173723227  1.0000
  H   H574      1.0  0.804078322710357  0.9668376692945206  0.6512039671988306  1.0000
  H   H575      1.0  0.884373772348191  0.9246260425542133  0.6807684903163972  1.0000
  H   H576      1.0  0.8913967027025388  0.9640287890094419  0.7117584321320346  1.0000
  H   H577      1.0  0.7485687892698454  0.8863076817396477  0.6348413085331929  1.0000
  H   H578      1.0  0.7844733535342051  0.9231695998944606  0.625936746626051  1.0000
  H   H579      1.0  0.856730233712086  0.8751368733664909  0.6636175464110213  1.0000
  H   H580      1.0  0.8197702949801414  0.8329525348707327  0.6713836866733953  1.0000
  H   H581      1.0  0.9066014806076368  0.9558920686189943  0.6441897592161098  1.0000
  H   H582      1.0  0.9552039853056956  0.9450025264964035  0.6275343635561034  1.0000
  H   H583      1.0  0.9176707552778585  0.86421810118175  0.592457583701434  1.0000
  H   H584      1.0  0.866241303239411  0.87833377230971  0.6087398831921467  1.0000
  H   H585      1.0  0.8163999436380237  0.9162444558532209  0.5889600462785171  1.0000
  H   H586      1.0  0.8114815101875834  0.9516679927123253  0.5520828382427947  1.0000
  H   H587      1.0  0.8630007709898265  0.01770975184389534  0.5911278306877976  1.0000
  H   H588      1.0  0.8639010539023906  0.9863223951132872  0.6304789533229902  1.0000
  C   C925      1.0  0.7992080141346047  0.8378994733635003  0.44833914341489495  1.0000
  C   C926      1.0  0.7965985782449473  0.8617922589517845  0.464990712447524  1.0000
  C   C927      1.0  0.8202063411363121  0.8821848395803292  0.46764447853373065  1.0000
  C   C928      1.0  0.8467971949527563  0.8810958373808394  0.453045895089061  1.0000
  C   C929      1.0  0.8489470826342757  0.8574062955471827  0.4357954588718735  1.0000
  C   C930      1.0  0.8261511714424893  0.8352481150186776  0.43429733425363276  1.0000
  H   H589      1.0  0.7753204875886448  0.8654551455445445  0.4749552501381975  1.0000
  H   H590      1.0  0.8158481107207964  0.9005850537864305  0.48125961874241585  1.0000
  H   H591      1.0  0.8683083105449981  0.8564189695296985  0.4227657926519259  1.0000
  H   H592      1.0  0.829462138951952  0.8152544264321466  0.42157379822387486  1.0000
  C   C931      1.0  0.9173152823925209  0.870040667682081  0.46082542854725583  1.0000
  C   C932      1.0  0.9068453910827029  0.8995194122360822  0.45690313548545075  1.0000
  C   C933      1.0  0.9288695954935231  0.9218010421909789  0.4550797475401336  1.0000
  C   C934      1.0  0.960075552638438  0.9154526306981262  0.4549898217967654  1.0000
  C   C935      1.0  0.9703642793738065  0.8863027279565515  0.4563080949282696  1.0000
  C   C936      1.0  0.949032570428544  0.8640096749952159  0.4597157066078183  1.0000
  C   C937      1.0  0.8704475131799267  0.9085598084916656  0.4526651456650126  1.0000
  C   C938      1.0  0.8651861471563129  0.9347651089804091  0.4736159305561177  1.0000
  C   C939      1.0  0.8653108149256801  0.9653106088543572  0.467581339182004  1.0000
  C   C940      1.0  0.8669419810357537  0.9873480083396008  0.4860142032587992  1.0000
  C   C941      1.0  0.8679619597123946  0.9790994383512176  0.5114402288677394  1.0000
  C   C942      1.0  0.8674014947202733  0.9489095438846171  0.5177484240993352  1.0000
  C   C943      1.0  0.8668878083394856  0.9268136567733501  0.4988295783456139  1.0000
  C   C944      1.0  0.8872843028476207  0.9207685739395532  0.4064241804368639  1.0000
  C   C945      1.0  0.8847836427699265  0.9375137655670749  0.3852399712757391  1.0000
  C   C946      1.0  0.8581309577751609  0.9527789357675912  0.3793373985461447  1.0000
  C   C947      1.0  0.8342047328824274  0.9510231048086853  0.39600427408828315  1.0000
  C   C948      1.0  0.8371467427962279  0.9346443850534433  0.417674464926334  1.0000
  C   C949      1.0  0.8647052437575965  0.9207088864126264  0.4244169823652614  1.0000
  C   C950      1.0  0.8578496702862299  0.9761374167980055  0.35663784494358114  1.0000
  C   C951      1.0  0.8796180961102351  0.06033035010252305  0.3989775635605003  1.0000
  C   C952      1.0  0.9034103033980982  0.042244543816532414  0.39002708212482995  1.0000
  C   C953      1.0  0.8963829724869591  0.014940516527639058  0.37837308844704726  1.0000
  C   C954      1.0  0.866163936492879  0.006701376713622809  0.372189258605216  1.0000
  C   C955      1.0  0.8426256798045186  0.025092733832366987  0.3818380995372565  1.0000
  C   C956      1.0  0.8492831037820566  0.05100922023880963  0.3949519515595062  1.0000
  C   C957      1.0  0.8258488866039237  0.9787034152254795  0.34123566974966363  1.0000
  C   C958      1.0  0.805423129143144  0.9550236756849476  0.33896839302857146  1.0000
  C   C959      1.0  0.7805280142767304  0.9572381755255437  0.3224450160130843  1.0000
  C   C960      1.0  0.7757705317027088  0.9827225241083448  0.30818891571868945  1.0000
  C   C961      1.0  0.7950359416753598  0.006895291162415829  0.31144346230314324  1.0000
  C   C962      1.0  0.8203090294366906  0.004673818756933068  0.3276798422653276  1.0000
  C   C963      1.0  0.8983437072591827  0.9885466886794553  0.32118031566486327  1.0000
  C   C964      1.0  0.9188698836491527  0.9793069099038048  0.30359504955215577  1.0000
  C   C965      1.0  0.9193730200398278  0.9496850582581461  0.2949640915024959  1.0000
  C   C966      1.0  0.9000559112807394  0.9289927827119112  0.3057857937257005  1.0000
  C   C967      1.0  0.8809003760398364  0.9377024981060889  0.32521549423430074  1.0000
  C   C968      1.0  0.8797928602399346  0.9675990174901983  0.3333910836260535  1.0000
  H   H593      1.0  0.9015502116231421  0.851667506452558  0.46395369642825646  1.0000
  H   H594      1.0  0.9226682246203307  0.9452554881588464  0.45136600567039525  1.0000
  H   H595      1.0  0.976170854025988  0.9345046957801177  0.4523379690242474  1.0000
  H   H596      1.0  0.9560348304050014  0.8411759741328559  0.46133054336106877  1.0000
  H   H597      1.0  0.8671998104509698  0.9727932990882643  0.44795456736346917  1.0000
  H   H598      1.0  0.8669469868049141  0.009898626119430265  0.4796103423427691  1.0000
  H   H599      1.0  0.867588397898499  0.9432597703272216  0.5374766015433703  1.0000
  H   H600      1.0  0.8692855002963268  0.9035610657205613  0.5047072779972555  1.0000
  H   H601      1.0  0.9085019777857191  0.907849557020402  0.40860727135565394  1.0000
  H   H602      1.0  0.9045097161803181  0.9380874091761925  0.3728206521224822  1.0000
  H   H603      1.0  0.8132790468175858  0.9644228516448475  0.39283199999244284  1.0000
  H   H604      1.0  0.8181190864178808  0.9348726657879142  0.43092224890679176  1.0000
  H   H605      1.0  0.9270684815676233  0.04849923514944711  0.3925947490950458  1.0000
  H   H606      1.0  0.9155491510357227  0.0015470386814553372  0.3727058533011611  1.0000
  H   H607      1.0  0.8185862967087275  0.017662713947635522  0.38025387580302494  1.0000
  H   H608      1.0  0.8294543596805979  0.0649938625472126  0.4002326973402779  1.0000
  H   H609      1.0  0.8105448369910758  0.9332776703587836  0.3462504649277081  1.0000
  H   H610      1.0  0.7651970258833188  0.9376813577774215  0.32060440824456893  1.0000
  H   H611      1.0  0.792439604382082  0.027072951423384926  0.29977798874322836  1.0000
  H   H612      1.0  0.8364622423436872  0.023467601520618997  0.32847195413244334  1.0000
  H   H613      1.0  0.8988785384688476  0.011445513504407812  0.3274808576417043  1.0000
  H   H614      1.0  0.936089579250542  0.9945888463656472  0.29646986937549136  1.0000
  H   H615      1.0  0.9000081695900765  0.905693989164913  0.2993207067716326  1.0000
  H   H616      1.0  0.8658177205163373  0.920443996506904  0.3334542229777801  1.0000
  C   C969      1.0  0.1751735806981597  0.03919894339416772  0.6379408767088632  1.0000
  C   C970      1.0  0.15332349554555139  0.05075217802025491  0.6536051758781306  1.0000
  C   C971      1.0  0.16181315918197609  0.06579365430385671  0.6754781779671821  1.0000
  C   C972      1.0  0.19265120164847663  0.06918771411557252  0.6834720025585097  1.0000
  C   C973      1.0  0.21416763323490753  0.05598291633278302  0.6673025885754295  1.0000
  C   C974      1.0  0.20586983529697087  0.04191558283393245  0.6448345459291968  1.0000
  H   H617      1.0  0.12892479274861338  0.048435091003144956  0.6485827274453315  1.0000
  H   H618      1.0  0.14324959937797282  0.07592684178900601  0.6861774281143109  1.0000
  H   H619      1.0  0.2387384418399227  0.05810885050324663  0.6725087151223423  1.0000
  H   H620      1.0  0.22351120162126328  0.03286115381261098  0.6325816850668555  1.0000
  C   C975      1.0  0.23718585603325962  0.04739221497003905  0.7256911824130418  1.0000
  C   C976      1.0  0.2337251100917363  0.07820160646061138  0.7229627970929763  1.0000
  C   C977      1.0  0.25686161922004336  0.09701376059868716  0.7334936756355008  1.0000
  C   C978      1.0  0.2822701110859651  0.08515870649278154  0.7459244746708898  1.0000
  C   C979      1.0  0.28527369516222245  0.05409176595705063  0.7486452067362005  1.0000
  C   C980      1.0  0.26287612439129915  0.03580442538308908  0.7377546252202032  1.0000
  C   C981      1.0  0.20345067096539302  0.08932050939047195  0.7081193094961551  1.0000
  C   C982      1.0  0.17984862328224283  0.09121817718312  0.7316530678669855  1.0000
  C   C983      1.0  0.17940895554602823  0.11618335975297668  0.7474933918956118  1.0000
  C   C984      1.0  0.15583366897531217  0.12120809915288935  0.7641526141829956  1.0000
  C   C985      1.0  0.1329502243593095  0.09974704737676972  0.7660429681074169  1.0000
  C   C986      1.0  0.1352561239673766  0.07245815555122159  0.7527014317562136  1.0000
  C   C987      1.0  0.1592463459657239  0.06796994124337165  0.7362335408376983  1.0000
  C   C988      1.0  0.23334757577058607  0.12755885693582242  0.680064390878961  1.0000
  C   C989      1.0  0.23433472979013667  0.15193896472183416  0.663996382521381  1.0000
  C   C990      1.0  0.20889532641058198  0.1711737889683128  0.6611857247127022  1.0000
  C   C991      1.0  0.1831132919710124  0.1656242344585122  0.6761937572867506  1.0000
  C   C992      1.0  0.1817490252404392  0.14051946297227932  0.6909855854139774  1.0000
  C   C993      1.0  0.2069381730458023  0.12093675398457011  0.6936049118537876  1.0000
  C   C994      1.0  0.20717436572164802  0.1992066879338472  0.6422458325084054  1.0000
  C   C995      1.0  0.2547437830118315  0.2597736296145005  0.6969379042994776  1.0000
  C   C996      1.0  0.2703101287403019  0.24464648877637174  0.6780898511522377  1.0000
  C   C997      1.0  0.2551871148818093  0.22721937828237057  0.6602730740831992  1.0000
  C   C998      1.0  0.22287406162165677  0.22414122671944312  0.6604184859235394  1.0000
  C   C999      1.0  0.20740308229023027  0.23832715510978794  0.6803513879322638  1.0000
  C   C1000     1.0  0.22353644121174016  0.25587913588974415  0.698072499316868  1.0000
  C   C1001     1.0  0.17261983025674604  0.20488848556283665  0.6322640749945336  1.0000
  C   C1002     1.0  0.1532420193588663  0.18131918705709912  0.6238971542339123  1.0000
  C   C1003     1.0  0.12379958232684318  0.18687058087502562  0.6145314837277973  1.0000
  C   C1004     1.0  0.11281982271625289  0.21608785514895318  0.6126679161950178  1.0000
  C   C1005     1.0  0.13165234510804757  0.23921818786680937  0.6200934866208059  1.0000
  C   C1006     1.0  0.1613735031440905  0.23410686389421784  0.6296524018094781  1.0000
  C   C1007     1.0  0.23001297544812566  0.22290230173709089  0.6012913530020945  1.0000
  C   C1008     1.0  0.23385402094264415  0.22195716014477093  0.5751554880146519  1.0000
  C   C1009     1.0  0.2324840077343452  0.19476456982828555  0.5622195741654499  1.0000
  C   C1010     1.0  0.2307844532211273  0.16842821451956655  0.5761484978190796  1.0000
  C   C1011     1.0  0.22476676377359814  0.1696007626425925  0.6016242695839257  1.0000
  C   C1012     1.0  0.222909769320377  0.1967734980616183  0.6144358180433631  1.0000
  H   H621      1.0  0.21961502079351092  0.0325689988786609  0.718841519407548  1.0000
  H   H622      1.0  0.2563162211695845  0.1216288797524571  0.7315172225950888  1.0000
  H   H623      1.0  0.3003210918468616  0.09998081293934027  0.7528831965566386  1.0000
  H   H624      1.0  0.26420589044209014  0.01179367711624657  0.7397062051826623  1.0000
  H   H625      1.0  0.1985740220433261  0.13220849555683617  0.7459761341404844  1.0000
  H   H626      1.0  0.15353563491189343  0.14259793999518305  0.7746987992350296  1.0000
  H   H627      1.0  0.11732572586040373  0.05449434710250491  0.7538513332831135  1.0000
  H   H628      1.0  0.1611886911892847  0.04723234720490016  0.7250808353463511  1.0000
  H   H629      1.0  0.25373934363570344  0.11343372528930676  0.6815299891644939  1.0000
  H   H630      1.0  0.25521680610744557  0.15781959928800024  0.6532971323742522  1.0000
  H   H631      1.0  0.1627972954978081  0.18018947888692124  0.6756446362580978  1.0000
  H   H632      1.0  0.15964183904699525  0.13622921733089552  0.6994998313286274  1.0000
  H   H633      1.0  0.29548710347126184  0.2464955364341633  0.6768940300968094  1.0000
  H   H634      1.0  0.26932882521776097  0.21478810695284267  0.6466770670114008  1.0000
  H   H635      1.0  0.18314936480945462  0.23486236027623053  0.6835466217923685  1.0000
  H   H636      1.0  0.21066962066608053  0.2656210210831813  0.7137214919766259  1.0000
  H   H637      1.0  0.16174804525525746  0.158475640750858  0.6245151545553579  1.0000
  H   H638      1.0  0.10975882243931682  0.16785302218789966  0.6071652260263586  1.0000
  H   H639      1.0  0.12358449555844475  0.262362871354516  0.6180328477780916  1.0000
  H   H640      1.0  0.17544038369149328  0.2531962099997394  0.6348374819058156  1.0000
  H   H641      1.0  0.2288103371200117  0.244663317612745  0.6114395688068818  1.0000
  H   H642      1.0  0.23434074205815913  0.24302318682989676  0.5648235940957508  1.0000
  H   H643      1.0  0.22924485449455032  0.14651434242612718  0.5668784929973989  1.0000
  H   H644      1.0  0.21950441298589154  0.14844379076900605  0.6107699090158419  1.0000
  C   C1013     1.0  0.2546260665709302  0.27022906992320644  0.3670826243701147  1.0000
  C   C1014     1.0  0.2734980650925358  0.24908240956328803  0.37826402956679217  1.0000
  C   C1015     1.0  0.26073764378464037  0.22554131360714622  0.39156347301684435  1.0000
  C   C1016     1.0  0.22895506527944448  0.22129660023665376  0.39268467483841407  1.0000
  C   C1017     1.0  0.2100847241730302  0.24120912886309373  0.3794101044663147  1.0000
  C   C1018     1.0  0.22286607126055827  0.26569120651015177  0.36686067998222716  1.0000
  H   H645      1.0  0.29829490586058993  0.2509740601383168  0.37755036356091254  1.0000
  H   H646      1.0  0.2771369523353316  0.20923757391625428  0.40025565710454214  1.0000
  H   H647      1.0  0.1845014367815619  0.23762286604389077  0.37897769557267186  1.0000
  H   H648      1.0  0.2079066498603684  0.28191927231792024  0.3575524088867727  1.0000
  C   C1019     1.0  0.16838102491271134  0.2240715766176062  0.42749741740404484  1.0000
  C   C1020     1.0  0.18256439679104136  0.19679146335603237  0.4217039035547055  1.0000
  C   C1021     1.0  0.16745279669130378  0.17067626922604842  0.42867984526365244  1.0000
  C   C1022     1.0  0.14053325270606282  0.17175878354048743  0.44243657068530046  1.0000
  C   C1023     1.0  0.12635834653918784  0.1986608122976335  0.4464066965893227  1.0000
  C   C1024     1.0  0.1400058325357993  0.2246658746300421  0.43902321906468567  1.0000
  C   C1025     1.0  0.21653642450482735  0.1941268961634228  0.4094089497912131  1.0000
  C   C1026     1.0  0.23486220241479733  0.1910922905322561  0.4360020967502515  1.0000
  C   C1027     1.0  0.24005199481662695  0.16394067081560668  0.44809423926274317  1.0000
  C   C1028     1.0  0.24831665358550936  0.16349754560158358  0.47408851903722304  1.0000
  C   C1029     1.0  0.2522723748873269  0.18963376388739842  0.48774957877443675  1.0000
  C   C1030     1.0  0.25010220169447067  0.21666506789903997  0.4750910954100942  1.0000
  C   C1031     1.0  0.24119705331379993  0.21741359695592605  0.4500439059115136  1.0000
  C   C1032     1.0  0.19612538719950265  0.1596639299319708  0.372384416601462  1.0000
  C   C1033     1.0  0.1990943733719953  0.1352764351281953  0.35611742362025867  1.0000
  C   C1034     1.0  0.22639405023421189  0.11880539982494057  0.3543361285760926  1.0000
  C   C1035     1.0  0.25158919136588054  0.12882391141875602  0.3692810217984142  1.0000
  C   C1036     1.0  0.24863938618025203  0.15233465353170175  0.3863573464699314  1.0000
  C   C1037     1.0  0.2200489320430692  0.16704977939474067  0.389315329432639  1.0000
  C   C1038     1.0  0.22576235168875236  0.08702919295239107  0.339129111378421  1.0000
  C   C1039     1.0  0.20560247789895963  0.03811985242993406  0.40883686899829613  1.0000
  C   C1040     1.0  0.1815946412846643  0.04617264661075814  0.3931859630248496  1.0000
  C   C1041     1.0  0.18746460809950102  0.06097002256356176  0.37048066948121994  1.0000
  C   C1042     1.0  0.217410685829366  0.06547688700925902  0.36296517331206374  1.0000
  C   C1043     1.0  0.24185709171613867  0.0561040887345055  0.3790446615517758  1.0000
  C   C1044     1.0  0.23548702965634064  0.04278510232066142  0.4017576083501602  1.0000
  C   C1045     1.0  0.2568883471807955  0.07722446110882983  0.3258602809473877  1.0000
  C   C1046     1.0  0.27855639335927296  0.0975357555901242  0.31646591073594244  1.0000
  C   C1047     1.0  0.30490778605860286  0.08778255397955406  0.30528641885295366  1.0000
  C   C1048     1.0  0.310583939723557  0.05716062425562117  0.3028756436052101  1.0000
  C   C1049     1.0  0.2890446637697158  0.036623969626616945  0.3106169107896312  1.0000
  C   C1050     1.0  0.26229893817382305  0.04642880268679597  0.3215036656782511  1.0000
  C   C1051     1.0  0.18510841202705533  0.05927707383824944  0.3098936782153081  1.0000
  C   C1052     1.0  0.15957912525225773  0.06092488307835504  0.29375870387862413  1.0000
  C   C1053     1.0  0.15300965892777335  0.08766021827972999  0.281048561044687  1.0000
  C   C1054     1.0  0.17361645244196863  0.110923953015614  0.28304988716305196  1.0000
  C   C1055     1.0  0.19803259287688307  0.10992950185742427  0.29958665737435985  1.0000
  C   C1056     1.0  0.20263000188180144  0.08462538094644362  0.3157273716521099  1.0000
  H   H649      1.0  0.18020066642279495  0.24533428284112846  0.4245203013044504  1.0000
  H   H650      1.0  0.17748750118677406  0.14889714488246025  0.4262996830349278  1.0000
  H   H651      1.0  0.13062971921658698  0.15144698521037944  0.44988318756166407  1.0000
  H   H652      1.0  0.13009539981054832  0.24664040412645655  0.44227776564913956  1.0000
  H   H653      1.0  0.23508475961628744  0.14274702693753397  0.4384090453706177  1.0000
  H   H654      1.0  0.24972685041189083  0.14145306498653895  0.4829662945527233  1.0000
  H   H655      1.0  0.25196441208746234  0.2379667009604803  0.4853311502719384  1.0000
  H   H656      1.0  0.2387151531543327  0.239605138088725  0.44184153012811933  1.0000
  H   H657      1.0  0.17462725079081934  0.17147137370822482  0.37239589648359406  1.0000
  H   H658      1.0  0.17818210391502332  0.129415321679645  0.3455157524712528  1.0000
  H   H659      1.0  0.2735890377510594  0.11651750934434778  0.3697402170836987  1.0000
  H   H660      1.0  0.2691845939632931  0.15804848284020742  0.3976937300753924  1.0000
  H   H661      1.0  0.15756332160101455  0.043651382582549345  0.39865421354711245  1.0000
  H   H662      1.0  0.16809238537030582  0.06823674074915334  0.3588419823129467  1.0000
  H   H663      1.0  0.26587991867834965  0.06144341304291934  0.3750133096097157  1.0000
  H   H664      1.0  0.2531411413728777  0.03739672378602578  0.4151622840530901  1.0000
  H   H665      1.0  0.2745797304859161  0.12154300483638177  0.31685048678736827  1.0000
  H   H666      1.0  0.32084687868233885  0.104974192236094  0.29879645882093275  1.0000
  H   H667      1.0  0.2917566930169654  0.012509314584304487  0.30666783133618447  1.0000
  H   H668      1.0  0.246162305840208  0.02966272456703318  0.32709436827658983  1.0000
  H   H669      1.0  0.18763834770308474  0.03849939543954493  0.32079191298606013  1.0000
  H   H670      1.0  0.14449423960699495  0.04189199811541252  0.2922529260056287  1.0000
  H   H671      1.0  0.1704579748696282  0.13126085717791752  0.27235446364330057  1.0000
  H   H672      1.0  0.21177129267487144  0.1301830192075036  0.3030363619550596  1.0000
  C   C1057     1.0  0.7729585047916996  0.19272466728932425  0.14253574720325846  1.0000
  C   C1058     1.0  0.7656268031968092  0.16615852828236663  0.13035233962781645  1.0000
  C   C1059     1.0  0.7887248305256382  0.14488906483383582  0.1261252556954038  1.0000
  C   C1060     1.0  0.8194954037802429  0.15033461877960203  0.1327361371525496  1.0000
  C   C1061     1.0  0.825489066957699  0.17678909539008605  0.14616759924712108  1.0000
  C   C1062     1.0  0.8030767219545913  0.1981042805205397  0.15055157490200594  1.0000
  H   H673      1.0  0.7413872604549667  0.16000724202044914  0.12466233604903496  1.0000
  H   H674      1.0  0.7826739855442164  0.12352694938607468  0.11806427379360335  1.0000
  H   H675      1.0  0.8490319445537214  0.18168477104072314  0.15389145527697518  1.0000
  H   H676      1.0  0.8088710425296869  0.2177051789248086  0.16179918075231195  1.0000
  C   C1063     1.0  0.8838481762146336  0.1668658856870562  0.11097602057113054  1.0000
  C   C1064     1.0  0.8798584020974951  0.13961596891873856  0.12362512869839859  1.0000
  C   C1065     1.0  0.9059472434493164  0.12186752722130373  0.1274620879696883  1.0000
  C   C1066     1.0  0.9347588936114054  0.1315186027697186  0.12042166758943261  1.0000
  C   C1067     1.0  0.9384166221560595  0.16042360311591058  0.11071274860756743  1.0000
  C   C1068     1.0  0.9125836204275002  0.17771343231638032  0.10493014064625354  1.0000
  C   C1069     1.0  0.8457015482023377  0.1262930740683248  0.12840305564178375  1.0000
  C   C1070     1.0  0.8410536913684558  0.10586177983995139  0.10369949728169109  1.0000
  C   C1071     1.0  0.8532559901120842  0.0767682620466132  0.10283621014535624  1.0000
  C   C1072     1.0  0.8559521590665091  0.0616412100856108  0.08000865585701962  1.0000
  C   C1073     1.0  0.8472087214769527  0.0757794907386304  0.057451261461525356  1.0000
  C   C1074     1.0  0.8344701746839092  0.1038590323088565  0.05853993695038735  1.0000
  C   C1075     1.0  0.8320057727201299  0.11950175605058351  0.08123738590789337  1.0000
  C   C1076     1.0  0.8627203215595667  0.11602641685771717  0.1752819196537402  1.0000
  C   C1077     1.0  0.8662933600340256  0.09725103025522228  0.1951905225786184  1.0000
  C   C1078     1.0  0.8498498786369129  0.07064076433436398  0.19644374304470735  1.0000
  C   C1079     1.0  0.8263683617340299  0.06655602146625413  0.17794506097702142  1.0000
  C   C1080     1.0  0.8235838409396463  0.08506725028878087  0.15738554873525246  1.0000
  C   C1081     1.0  0.843053768377448  0.10932970164129134  0.15502834627079207  1.0000
  C   C1082     1.0  0.8615573537858762  0.04319205404264494  0.21356598724475298  1.0000
  C   C1083     1.0  0.893165686358518  0.9981536630499692  0.1440954805222748  1.0000
  C   C1084     1.0  0.9110824924464407  0.02004513913881567  0.15629419460722632  1.0000
  C   C1085     1.0  0.9026987003400684  0.031299675635313204  0.1795853448023314  1.0000
  C   C1086     1.0  0.875481904242935  0.022377510335014117  0.19112128702552228  1.0000
  C   C1087     1.0  0.8590588102277786  0.9981435612307743  0.17935038988136087  1.0000
  C   C1088     1.0  0.8681020780252177  0.985912284658565  0.15644821635916548  1.0000
  C   C1089     1.0  0.8356154393656617  0.02446216416362401  0.22744133811509948  1.0000
  C   C1090     1.0  0.8062574393497042  0.03646775386912114  0.23092930896957298  1.0000
  C   C1091     1.0  0.7828464707977942  0.019511082737600605  0.2409263729929542  1.0000
  C   C1092     1.0  0.7887992522662626  0.9906927762793768  0.2500720124248704  1.0000
  C   C1093     1.0  0.8179849374991623  0.9790929953242786  0.24787935493763694  1.0000
  C   C1094     1.0  0.841782841435793  0.9961748123529965  0.23803918263672794  1.0000
  C   C1095     1.0  0.9135127081147993  0.04068692430625444  0.2412248499283891  1.0000
  C   C1096     1.0  0.9342062681322365  0.05424414039429233  0.25793190505799  1.0000
  C   C1097     1.0  0.9260342706905942  0.07931345151347824  0.27169245710701545  1.0000
  C   C1098     1.0  0.8956304987743815  0.08873123149274341  0.2705521221485589  1.0000
  C   C1099     1.0  0.8745882288691612  0.07557288557060088  0.25321558681538053  1.0000
  C   C1100     1.0  0.8841482379587113  0.05228297717592453  0.2370212997543473  1.0000
  H   H677      1.0  0.8644447824252309  0.18016257059173632  0.10575286553238827  1.0000
  H   H678      1.0  0.904877584335646  0.09978193364655184  0.1352613285588766  1.0000
  H   H679      1.0  0.9547254738437433  0.1168046353722919  0.12523384284784528  1.0000
  H   H680      1.0  0.914749349766789  0.20111152888415557  0.09911959830508485  1.0000
  H   H681      1.0  0.8625495031369435  0.0655422235365224  0.11943286707512002  1.0000
  H   H682      1.0  0.8662742231116612  0.039896927665567856  0.07999201002792805  1.0000
  H   H683      1.0  0.8283393543375185  0.11631920153368511  0.041376365174666106  1.0000
  H   H684      1.0  0.8255239646281909  0.1433245553400542  0.07932120224867495  1.0000
  H   H685      1.0  0.8753035727880353  0.13729043061242452  0.17503854615253944  1.0000
  H   H686      1.0  0.8839824308123071  0.1035227708271176  0.20920363203455028  1.0000
  H   H687      1.0  0.8121043835650193  0.04620980075678512  0.17797031671771205  1.0000
  H   H688      1.0  0.8052430799015726  0.08049914289033948  0.14337033463426305  1.0000
  H   H689      1.0  0.9308152536709986  0.029895796720422356  0.14659484219380456  1.0000
  H   H690      1.0  0.9168740184001818  0.0486410179764374  0.18876427589243078  1.0000
  H   H691      1.0  0.837139894814498  0.9909543508806687  0.1863676591659834  1.0000
  H   H692      1.0  0.854903234142807  0.9674755552297699  0.14838589513778294  1.0000
  H   H693      1.0  0.8000562448551302  0.05971029927954792  0.22504204274948802  1.0000
  H   H694      1.0  0.7603675278619223  0.02969214463498519  0.24311711716649897  1.0000
  H   H695      1.0  0.822942490017464  0.9572079385819242  0.25452238006475264  1.0000
  H   H696      1.0  0.8637646817006694  0.9855267281799303  0.23671134293678026  1.0000
  H   H697      1.0  0.9204047248892835  0.021114344968915955  0.23134258472632904  1.0000
  H   H698      1.0  0.9579817348926506  0.04503292403552092  0.2599007048436473  1.0000
  H   H699      1.0  0.8884516279260548  0.10829234835211202  0.28159576875965103  1.0000
  H   H700      1.0  0.8514069250625762  0.08431180179724171  0.2509119571342033  1.0000
  C   C1101     1.0  0.89373801052796  0.02440817226864045  0.8996554029293844  1.0000
  C   C1102     1.0  0.9154529492367687  0.04123472909889082  0.8872494769719482  1.0000
  C   C1103     1.0  0.9058176253864991  0.06373090891000531  0.8706476540952249  1.0000
  C   C1104     1.0  0.8747258118880573  0.07070655928152249  0.8676724513093192  1.0000
  C   C1105     1.0  0.8538649506464502  0.05527106642310834  0.8821371027957808  1.0000
  C   C1106     1.0  0.8630493293675964  0.031149037619467013  0.8967854323963563  1.0000
  H   H701      1.0  0.939863807254425  0.03612785569646639  0.8881276879550548  1.0000
  H   H702      1.0  0.9233945007098326  0.07552884931577002  0.8596212273073311  1.0000
  H   H703      1.0  0.8291705426278071  0.060578908675050926  0.8810312074837207  1.0000
  H   H704      1.0  0.845366298480708  0.01663646614703107  0.9050184211987695  1.0000
  C   C1107     1.0  0.8197492997311383  0.06485176768681104  0.8286867715886654  1.0000
  C   C1108     1.0  0.8273994619564875  0.09325531879844655  0.838414058381942  1.0000
  C   C1109     1.0  0.8068546263574605  0.1167267845207747  0.8339330777230408  1.0000
  C   C1110     1.0  0.7801945118997334  0.11142740407276905  0.8195411321567492  1.0000
  C   C1111     1.0  0.7726400974377988  0.08293037907368951  0.8109905332820142  1.0000
  C   C1112     1.0  0.7919668349040965  0.059613267447912933  0.816391817825173  1.0000
  C   C1113     1.0  0.8615602719679066  0.09819185381266916  0.8501924174494894  1.0000
  C   C1114     1.0  0.8791251987661468  0.10705780309577503  0.8248257045648983  1.0000
  C   C1115     1.0  0.8788787207048072  0.13672998515766666  0.8158809630702941  1.0000
  C   C1116     1.0  0.897981893080889  0.1455174432085415  0.7969353309249312  1.0000
  C   C1117     1.0  0.9150928532473261  0.12430543337179849  0.7838693117448987  1.0000
  C   C1118     1.0  0.9131655845137726  0.09432245650486933  0.7907017549271943  1.0000
  C   C1119     1.0  0.8952633385209156  0.08550617106946788  0.8109694868314387  1.0000
  C   C1120     1.0  0.8416662684478431  0.1293045315908975  0.8895779797310784  1.0000
  C   C1121     1.0  0.8468396616802183  0.14751883872803614  0.9102704672742109  1.0000
  C   C1122     1.0  0.8758931230668449  0.16040828794099873  0.9154670272526805  1.0000
  C   C1123     1.0  0.8971068211170988  0.1589715779896275  0.8954843790880501  1.0000
  C   C1124     1.0  0.8918503984040012  0.1406150561878427  0.8748186779365592  1.0000
  C   C1125     1.0  0.864582471161291  0.12410469046970146  0.8718224287000778  1.0000
  C   C1126     1.0  0.8845568137798617  0.16998730552953722  0.9442777047769052  1.0000
  C   C1127     1.0  0.8109997027844412  0.2387282755660043  0.9415933256716795  1.0000
  C   C1128     1.0  0.8093595632353064  0.21484129062204313  0.9580746097860157  1.0000
  C   C1129     1.0  0.8332036439842571  0.19469469514559012  0.9609063140452699  1.0000
  C   C1130     1.0  0.8606561194425975  0.19822692589434332  0.947624090418416  1.0000
  C   C1131     1.0  0.862991140738787  0.22328481357581803  0.9319004785247994  1.0000
  C   C1132     1.0  0.83863199847216  0.24403706216308735  0.9296925145280563  1.0000
  C   C1133     1.0  0.9206907254377033  0.17882862119748694  0.9480966788995212  1.0000
  C   C1134     1.0  0.9419436704073711  0.15507121442730024  0.9424256171262577  1.0000
  C   C1135     1.0  0.9734028925259619  0.15869794365279552  0.9471323688004238  1.0000
  C   C1136     1.0  0.9847284398212468  0.18538153548703626  0.9578966716129679  1.0000
  C   C1137     1.0  0.9641752141092895  0.20808926707793574  0.9648400869892072  1.0000
  C   C1138     1.0  0.9328776056679824  0.20497896766265572  0.9596932731666435  1.0000
  C   C1139     1.0  0.8830156338732896  0.14863513897555442  0.9904249176343083  1.0000
  C   C1140     1.0  0.8827644728233515  0.125686142114148  0.008182381978997455  1.0000
  C   C1141     1.0  0.8813237331279685  0.09601663836220867  0.00039136863867073046  1.0000
  C   C1142     1.0  0.8795800092647855  0.08923575231769883  0.9743741290999266  1.0000
  C   C1143     1.0  0.8795475516121479  0.11215293171047455  0.9571619591565127  1.0000
  C   C1144     1.0  0.8799584644408773  0.1426259016526417  0.9642335665498939  1.0000
  H   H705      1.0  0.836577837136974  0.04634690298889384  0.8298845059577826  1.0000
  H   H706      1.0  0.8128561911381441  0.1399768138667614  0.8396711054754084  1.0000
  H   H707      1.0  0.765671190150086  0.13034160521922927  0.8152725293172922  1.0000
  H   H708      1.0  0.7861362377598246  0.03687086536590889  0.8090733929659514  1.0000
  H   H709      1.0  0.8656860780388667  0.154401368327784  0.8258684605252319  1.0000
  H   H710      1.0  0.8994008397857627  0.16913131390876782  0.7926361150664551  1.0000
  H   H711      1.0  0.9270940561635038  0.07782101655479111  0.7802952417744344  1.0000
  H   H712      1.0  0.8952986627246105  0.061733972602790406  0.8166214154678153  1.0000
  H   H713      1.0  0.8204484493941516  0.11673279890311752  0.8870141393882399  1.0000
  H   H714      1.0  0.8300251701970396  0.1462144203781846  0.9258295341906007  1.0000
  H   H715      1.0  0.9192781329087901  0.17118764759148092  0.8959856672744857  1.0000
  H   H716      1.0  0.9116219409863631  0.13850516493333942  0.8616550797584036  1.0000
  H   H717      1.0  0.7878172187923077  0.21018286084804014  0.9683223179026146  1.0000
  H   H718      1.0  0.8281675844843412  0.1746528245595567  0.9717031431905218  1.0000
  H   H719      1.0  0.8832066221367744  0.22539084372245882  0.9203517170998943  1.0000
  H   H720      1.0  0.8399464050700787  0.26256266567437403  0.9168063468347603  1.0000
  H   H721      1.0  0.9334476914737476  0.1344090348907121  0.9332417114205679  1.0000
  H   H722      1.0  0.9889205639372527  0.14065991239465508  0.9413197218141975  1.0000
  H   H723      1.0  0.9730987142461921  0.22887609203171713  0.9739551134021044  1.0000
  H   H724      1.0  0.9170344168764851  0.22307070546383617  0.9655633195635303  1.0000
  H   H725      1.0  0.8849262612144317  0.17164908367035217  0.997506091596133  1.0000
  H   H726      1.0  0.8848325969815839  0.13197925110698946  0.027923952618853498  1.0000
  H   H727      1.0  0.8802056682005609  0.06583199345334109  0.9684275501554923  1.0000
  H   H728      1.0  0.8809076425776938  0.10526727526093974  0.9376710326098745  1.0000
  C   C1145     1.0  0.8499213710712021  0.7706455765377082  0.1429637554754174  1.0000
  C   C1146     1.0  0.8760765910586645  0.7629511908732041  0.1302771463998511  1.0000
  C   C1147     1.0  0.8988779783476831  0.7837265030184856  0.12654886334607873  1.0000
  C   C1148     1.0  0.8953188455661547  0.8137851834121305  0.13355599206815127  1.0000
  C   C1149     1.0  0.8685818885607147  0.821418916306592  0.1468322844225704  1.0000
  C   C1150     1.0  0.8467034969790491  0.8001259464954786  0.1517341940929824  1.0000
  H   H729      1.0  0.8797454756113035  0.7400823448924276  0.12403993510610559  1.0000
  H   H730      1.0  0.919460437865235  0.7759041375053779  0.11691762489997418  1.0000
  H   H731      1.0  0.8644931870529418  0.844060617201011  0.1543188895550275  1.0000
  H   H732      1.0  0.8270809076429603  0.8063156477735308  0.16297376402579591  1.0000
  C   C1151     1.0  0.8815471299548631  0.879068374295875  0.11143004990945558  1.0000
  C   C1152     1.0  0.9098262459715875  0.8720665759125142  0.12290476609460853  1.0000
  C   C1153     1.0  0.929902364722616  0.8967825880630784  0.12666117485960457  1.0000
  C   C1154     1.0  0.9209985160745011  0.9259278130657037  0.1210695156044215  1.0000
  C   C1155     1.0  0.8929545890342635  0.9323094481742291  0.11043206548943728  1.0000
  C   C1156     1.0  0.8734582305233219  0.9083151115694451  0.10472809472072837  1.0000
  C   C1157     1.0  0.9213087278678272  0.8384809410413999  0.1285494241389682  1.0000
  C   C1158     1.0  0.9414480915500221  0.833193845033314  0.10389656859162569  1.0000
  C   C1159     1.0  0.9732611372799858  0.83983067919718  0.10381678341080752  1.0000
  C   C1160     1.0  0.9900965846782753  0.8344666635452522  0.08263085226736296  1.0000
  C   C1161     1.0  0.9763372729377413  0.8218292309905143  0.06149734591898837  1.0000
  C   C1162     1.0  0.9454482304653664  0.814871635775353  0.06087437098195241  1.0000
  C   C1163     1.0  0.9281231563334624  0.8210872630984675  0.08180908403807258  1.0000
  C   C1164     1.0  0.9374526966611411  0.8531569931781422  0.17447794524175458  1.0000
  C   C1165     1.0  0.9573690385822393  0.8518995209750179  0.1951522563048447  1.0000
  C   C1166     1.0  0.9798409189465801  0.8293227616855052  0.19662359453144376  1.0000
  C   C1167     1.0  0.9804053089062461  0.8075905577300055  0.1778631711511457  1.0000
  C   C1168     1.0  0.9605430564437031  0.8093900814157234  0.15728452577248989  1.0000
  C   C1169     1.0  0.9403540744944078  0.8339898924178072  0.154307983667002  1.0000
  C   C1170     1.0  0.00921068277858672  0.8335860939498322  0.21540468169957966  1.0000
  C   C1171     1.0  0.07554890037185467  0.8673716225400784  0.15902640655466904  1.0000
  C   C1172     1.0  0.0511913566380468  0.8851037777740834  0.16705505345513072  1.0000
  C   C1173     1.0  0.030683715169776714  0.874741743628137  0.18496252159301285  1.0000
  C   C1174     1.0  0.03364736040790698  0.8457663595611593  0.1950757237572973  1.0000
  C   C1175     1.0  0.057371659604240934  0.8272829397783125  0.1852531539423242  1.0000
  C   C1176     1.0  0.07741156674440537  0.8380000995728695  0.16703094570265328  1.0000
  C   C1177     1.0  0.019236951807698948  0.8031262781436395  0.2296416488570877  1.0000
  C   C1178     1.0  0.9984624617119685  0.7794333982648599  0.23354480878200592  1.0000
  C   C1179     1.0  0.006666027985946954  0.7549684246981679  0.24783726203648587  1.0000
  C   C1180     1.0  0.035655299555839466  0.7535846136204821  0.25899188084152175  1.0000
  C   C1181     1.0  0.05661808728953678  0.7767440431179489  0.25573733425706785  1.0000
  C   C1182     1.0  0.04822416532423196  0.8017537396012764  0.24185433013196658  1.0000
  C   C1183     1.0  0.02065968680145474  0.8792203584788296  0.24525620187044925  1.0000
  C   C1184     1.0  0.012105373871179381  0.9004302223062015  0.2630442792341574  1.0000
  C   C1185     1.0  0.9850048017760257  0.8966125443445598  0.2761275182373882  1.0000
  C   C1186     1.0  0.9689354729064122  0.869977401542974  0.27331494711502063  1.0000
  C   C1187     1.0  0.9779161896061822  0.848488405953987  0.25598989166397434  1.0000
  C   C1188     1.0  0.0027267413944684904  0.8542468907075822  0.23998693597180965  1.0000
  H   H733      1.0  0.8655323818868164  0.860775619907911  0.10724505887819401  1.0000
  H   H734      1.0  0.9525503679237437  0.8930868542393712  0.13411812362988706  1.0000
  H   H735      1.0  0.9382693512737728  0.9424870695767024  0.12512688861264776  1.0000
  H   H736      1.0  0.8516674904258865  0.911385762138326  0.09460456066252505  1.0000
  H   H737      1.0  0.9846066794569148  0.8504778197387551  0.11992956330870273  1.0000
  H   H738      1.0  0.014055072548636804  0.8406546755047274  0.08143617920014778  1.0000
  H   H739      1.0  0.9342827705054376  0.804897586232964  0.044023243331593485  1.0000
  H   H740      1.0  0.9033822905020655  0.8175366651440934  0.08024590675441659  1.0000
  H   H741      1.0  0.9194921775445255  0.8707278398361593  0.17446531737140927  1.0000
  H   H742      1.0  0.9558217299060221  0.8690468134104902  0.20922850511250315  1.0000
  H   H743      1.0  0.9986634235112156  0.7913146998441231  0.17783389745170877  1.0000
  H   H744      1.0  0.9614462776554092  0.7922796894241803  0.1427546302892441  1.0000
  H   H745      1.0  0.04831157094228763  0.9082149823901357  0.1607960303853342  1.0000
  H   H746      1.0  0.012178920489354879  0.8894022439777441  0.19129291126339737  1.0000
  H   H747      1.0  0.060898032700385955  0.8047800046718528  0.1922038399105805  1.0000
  H   H748      1.0  0.09661837165345194  0.8240028570450492  0.16173317143005228  1.0000
  H   H749      1.0  0.9751054975082527  0.7797240751803987  0.22592599367366065  1.0000
  H   H750      1.0  0.9896218566408138  0.7378916666146285  0.2518877471154328  1.0000
  H   H751      1.0  0.07891780751434053  0.7767807513107398  0.26536895536591015  1.0000
  H   H752      1.0  0.06428511000996186  0.8201319334298708  0.2398491773862243  1.0000
  H   H753      1.0  0.041579755841540736  0.8843147075245023  0.2347674162290759  1.0000
  H   H754      1.0  0.026094825028341068  0.9208006635476889  0.26469355563380426  1.0000
  H   H755      1.0  0.9477717500583173  0.8652151017412134  0.2826404380336733  1.0000
  H   H756      1.0  0.9636486862884094  0.8286624952527748  0.2525994998076238  1.0000
  C   C1189     1.0  0.026618977279811402  0.8846088660708884  0.9249991560497111  1.0000
  C   C1190     1.0  0.01231270496537662  0.9054861437527674  0.9098399716942567  1.0000
  C   C1191     1.0  0.9988246682404561  0.8964725218355647  0.887165291169646  1.0000
  C   C1192     1.0  0.9991671219883285  0.8666294245131403  0.8786146922949111  1.0000
  C   C1193     1.0  0.01542667878529162  0.8462963651685087  0.8938580624526675  1.0000
  C   C1194     1.0  0.029360664140745125  0.8551457792933236  0.9169287989108361  1.0000
  H   H757      1.0  0.00969551271834912  0.929890010695337  0.9147036150908949  1.0000
  H   H758      1.0  0.9842986763977357  0.9124945107227526  0.8773251188687371  1.0000
  H   H759      1.0  0.01606391447610736  0.8223145923666276  0.8885658367897638  1.0000
  H   H760      1.0  0.04316173156588269  0.8375889366732054  0.9263002093580173  1.0000
  C   C1195     1.0  0.02283247005968755  0.825431122216857  0.8340899694455131  1.0000
  C   C1196     1.0  0.991021859660616  0.8281889294451406  0.839089458114048  1.0000
  C   C1197     1.0  0.97136836566865  0.8065356023690698  0.8287958304689206  1.0000
  C   C1198     1.0  0.9813379781293994  0.7827327461057273  0.813929383107835  1.0000
  C   C1199     1.0  0.012116438957756603  0.7807068901392621  0.8089872938499606  1.0000
  C   C1200     1.0  0.03271715866883596  0.8016432221760782  0.8191182898315499  1.0000
  C   C1201     1.0  0.9779695935252005  0.8556369604473462  0.8543921409961538  1.0000
  C   C1202     1.0  0.9750292341951555  0.8792875739804982  0.8314266367908629  1.0000
  C   C1203     1.0  0.949230480752075  0.8802364119370543  0.8151979100834335  1.0000
  C   C1204     1.0  0.9445482659956286  0.9033364287599911  0.7977829288890188  1.0000
  C   C1205     1.0  0.967954331556002  0.9245977552125565  0.7958141291033616  1.0000
  C   C1206     1.0  0.9958525071069053  0.9203805328225056  0.8082506680798167  1.0000
  C   C1207     1.0  0.9990960202470703  0.8982748661137455  0.8259545596412227  1.0000
  C   C1208     1.0  0.9425758264488632  0.8254440486918246  0.8853495564790835  1.0000
  C   C1209     1.0  0.9230194063107431  0.8259383352048808  0.9056364215202148  1.0000
  C   C1210     1.0  0.9092847328404968  0.852515276237364  0.9130505120638708  1.0000
  C   C1211     1.0  0.9075287118594642  0.8752261105174359  0.8948759453350482  1.0000
  C   C1212     1.0  0.9264740501247402  0.8749604995049363  0.8740514391473964  1.0000
  C   C1213     1.0  0.946418576206971  0.8509703183649382  0.869899548442949  1.0000
  C   C1214     1.0  0.9008259295412947  0.8585339272321721  0.9425021496738051  1.0000
  C   C1215     1.0  0.8150779012521137  0.804635586956683  0.9463632166975724  1.0000
  C   C1216     1.0  0.8424056879088397  0.7933357748288167  0.9551988993119215  1.0000
  C   C1217     1.0  0.8693993994375222  0.8100053248088661  0.9549214688270621  1.0000
  C   C1218     1.0  0.8693427893262089  0.8395994249749864  0.9453969932847861  1.0000
  C   C1219     1.0  0.8411974013071792  0.8498848652017738  0.9355166413964148  1.0000
  C   C1220     1.0  0.8149415442857991  0.8328119083113255  0.9360236695239164  1.0000
  C   C1221     1.0  0.9025418416011833  0.8946989164042047  0.9485597008121831  1.0000
  C   C1222     1.0  0.9294432595514078  0.9103468182249247  0.9429249919990046  1.0000
  C   C1223     1.0  0.9301528159227032  0.9411750757835666  0.9413752079111696  1.0000
  C   C1224     1.0  0.9043024999449661  0.9578811283852378  0.9464493158135632  1.0000
  C   C1225     1.0  0.8777903822807497  0.943378193836383  0.9541044838819934  1.0000
  C   C1226     1.0  0.8768301785118484  0.9120163241645168  0.9554858963652243  1.0000
  C   C1227     1.0  0.9210576438826011  0.8547057401388246  0.9897284714516268  1.0000
  C   C1228     1.0  0.9451630669925866  0.8543782783129912  0.006858368906427215  1.0000
  C   C1229     1.0  0.9740916577054336  0.8451716539699429  0.0003492757375196387  1.0000
  C   C1230     1.0  0.9795747167362135  0.8379699848745161  0.9750476155183437  1.0000
  C   C1231     1.0  0.9560451849084095  0.8419062103641366  0.957269104723079  1.0000
  C   C1232     1.0  0.9259911214527666  0.8490307968363805  0.9636748789527978  1.0000
  H   H761      1.0  0.040130953700984774  0.8420348102339484  0.8404402575782599  1.0000
  H   H762      1.0  0.9468841687005259  0.8085980532337974  0.8316524078061278  1.0000
  H   H763      1.0  0.9651370531951369  0.7671994955486123  0.8053673043509678  1.0000
  H   H764      1.0  0.056533445535014756  0.7995406459045838  0.8150065787145649  1.0000
  H   H765      1.0  0.9317683606775835  0.8635438875642856  0.81729872851361  1.0000
  H   H766      1.0  0.9232530130296341  0.905415517849496  0.7866340500250492  1.0000
  H   H767      1.0  0.014248253010168473  0.936620807431387  0.805962344908149  1.0000
  H   H768      1.0  0.020705289044885198  0.8968077054004236  0.8368948873131259  1.0000
  H   H769      1.0  0.9601763220960492  0.8076105665190716  0.8843048872050614  1.0000
  H   H770      1.0  0.9236303649444711  0.8065670133848207  0.9184020504511239  1.0000
  H   H771      1.0  0.8947032569783825  0.8955552007917298  0.8977860954555387  1.0000
  H   H772      1.0  0.9287724783335435  0.896176937475841  0.8636181396029949  1.0000
  H   H773      1.0  0.8439828115465274  0.7708133564171389  0.9630530520039751  1.0000
  H   H774      1.0  0.8910061295054117  0.7997065634715573  0.9608431746935434  1.0000
  H   H775      1.0  0.8406133112879931  0.8716931244477708  0.9267689712117451  1.0000
  H   H776      1.0  0.7938907153996538  0.8417419155798168  0.9278633866416732  1.0000
  H   H777      1.0  0.9494643253425777  0.8984440126861449  0.9359949698185861  1.0000
  H   H778      1.0  0.9514841600815653  0.9502378297618722  0.9336454206088804  1.0000
  H   H779      1.0  0.8560769489410597  0.9563052851861511  0.9563277543882458  1.0000
  H   H780      1.0  0.8544636694226367  0.9020734955664066  0.9606556699520523  1.0000
  H   H781      1.0  0.8982324160520408  0.8620043913228094  0.995565991515806  1.0000
  H   H782      1.0  0.9409180439337885  0.860312746170202  0.026687951975962854  1.0000
  H   H783      1.0  0.0020921998713423484  0.8322225460671862  0.9686743676213329  1.0000
  H   H784      1.0  0.9630024625937967  0.8418516603903959  0.9378279243323467  1.0000
  C   C1233     1.0  0.2924021313332757  0.8144998916448415  0.1254701370883979  1.0000
  C   C1234     1.0  0.3055786753734667  0.83872752571363  0.11388961465626067  1.0000
  C   C1235     1.0  0.28896885469209577  0.8652657057232914  0.11169695716902721  1.0000
  C   C1236     1.0  0.25861979838723737  0.8676982637701139  0.12025444397304152  1.0000
  C   C1237     1.0  0.24686714339911722  0.8426338098131716  0.1330256215136477  1.0000
  C   C1238     1.0  0.26360703080834663  0.8167109019722124  0.13566848171182885  1.0000
  H   H785      1.0  0.3291282013223543  0.8371708360201157  0.10766407457601612  1.0000
  H   H786      1.0  0.2997886145199732  0.8850380261534156  0.10453676335185984  1.0000
  H   H787      1.0  0.22506132539714932  0.8435844582223582  0.14227917183760577  1.0000
  H   H788      1.0  0.25389675934260336  0.7980786984309005  0.1461413868495861  1.0000
  C   C1239     1.0  0.18811949041770962  0.867932473349397  0.1020131025964838  1.0000
  C   C1240     1.0  0.2028494655499294  0.894753544332119  0.11123680522689837  1.0000
  C   C1241     1.0  0.18372428303171032  0.9188623512101644  0.11628852735913443  1.0000
  C   C1242     1.0  0.15190027160565128  0.9160718121975465  0.11542428356595522  1.0000
  C   C1243     1.0  0.1380114968763255  0.8888738901707831  0.10875141074529603  1.0000
  C   C1244     1.0  0.156145210627487  0.8647995145941925  0.10162603923726272  1.0000
  C   C1245     1.0  0.239218452760813  0.8984207685022161  0.11851887712603498  1.0000
  C   C1246     1.0  0.25002519832838976  0.9188765003368305  0.09534080376993119  1.0000
  C   C1247     1.0  0.25016911476984033  0.9505170390144558  0.09689996309484093  1.0000
  C   C1248     1.0  0.24944666310776614  0.9683939747021365  0.07591703453376589  1.0000
  C   C1249     1.0  0.25190847011186046  0.9547536563939608  0.05242804770325071  1.0000
  C   C1250     1.0  0.2548673354327277  0.9241796573265264  0.05032722927307415  1.0000
  C   C1251     1.0  0.2531811069633161  0.9060869946721578  0.07097475394452263  1.0000
  C   C1252     1.0  0.2233655668850806  0.9091544239493983  0.16527528906191558  1.0000
  C   C1253     1.0  0.22383318130739607  0.9285671604768999  0.1858357579605289  1.0000
  C   C1254     1.0  0.24657819580479226  0.9501459750272995  0.1889732097472352  1.0000
  C   C1255     1.0  0.27232221776088983  0.9473978231568967  0.1734040022682955  1.0000
  C   C1256     1.0  0.2707163782316555  0.929075500734939  0.15218018751381496  1.0000
  C   C1257     1.0  0.24523663599419554  0.9118853531660243  0.146370027835384  1.0000
  C   C1258     1.0  0.23830974748883915  0.9802599734293175  0.20487188984336654  1.0000
  C   C1259     1.0  0.20678451107150828  0.02399640188860186  0.13310004941613757  1.0000
  C   C1260     1.0  0.18570981130189568  0.0083802559473527  0.14805068257952525  1.0000
  C   C1261     1.0  0.19428824802568742  0.9959222009705476  0.17112830696697306  1.0000
  C   C1262     1.0  0.22499551009200075  0.9989582236720475  0.18061107227083567  1.0000
  C   C1263     1.0  0.24557071697944954  0.015472351045756616  0.1658018329890418  1.0000
  C   C1264     1.0  0.23671384247206098  0.02652963386114937  0.14231074151346906  1.0000
  C   C1265     1.0  0.2657895471726679  0.9981432238908685  0.21974216383182943  1.0000
  C   C1266     1.0  0.2932423224850631  0.9843898193927425  0.22765754256192094  1.0000
  C   C1267     1.0  0.31572542316011376  0.0007119877502796967  0.24084027387696336  1.0000
  C   C1268     1.0  0.3114189519075099  0.031102586286595405  0.2467677196845107  1.0000
  C   C1269     1.0  0.28385062748228873  0.04445983056246973  0.23908193859706145  1.0000
  C   C1270     1.0  0.26145026404549765  0.02822007419969217  0.2255777705823199  1.0000
  C   C1271     1.0  0.19138202071057137  0.9945799456082817  0.23291532857842845  1.0000
  C   C1272     1.0  0.16988031981781998  0.9874314885357782  0.25083733790034457  1.0000
  C   C1273     1.0  0.17311745003080886  0.9623966356762537  0.2657554447310246  1.0000
  C   C1274     1.0  0.19993252100135986  0.9454640057905266  0.26359340026281014  1.0000
  C   C1275     1.0  0.2205006537133528  0.9515569373995559  0.2445808021383433  1.0000
  C   C1276     1.0  0.21545918480932524  0.9754132939457886  0.22769389552200595  1.0000
  H   H789      1.0  0.20153381436426848  0.8482907310202874  0.09737924817385661  1.0000
  H   H790      1.0  0.1935027238021954  0.9404766272551283  0.12146327556155295  1.0000
  H   H791      1.0  0.13964703424484373  0.9361865868662901  0.12215474712864385  1.0000
  H   H792      1.0  0.14552664840288912  0.8437496068897962  0.09650830778276702  1.0000
  H   H793      1.0  0.24500687365964918  0.9613127165787978  0.11449996172295131  1.0000
  H   H794      1.0  0.24529337236144022  0.9926566048237686  0.07722497577135123  1.0000
  H   H795      1.0  0.2574698773971655  0.9141600310077863  0.031459756315544096  1.0000
  H   H796      1.0  0.2537710524369914  0.8821669507483697  0.06787920372759852  1.0000
  H   H797      1.0  0.20271143634122987  0.8953322144273467  0.16351293582326745  1.0000
  H   H798      1.0  0.20391788636591412  0.9292676230079611  0.19788829487966483  1.0000
  H   H799      1.0  0.29101034044295837  0.9644340776401517  0.17496985819111563  1.0000
  H   H800      1.0  0.28942585864602643  0.9315132948274997  0.13847703487545013  1.0000
  H   H801      1.0  0.1620459995986544  0.005408269534509236  0.14156761047678365  1.0000
  H   H802      1.0  0.17835044765334926  0.9836413495152607  0.18177054036617898  1.0000
  H   H803      1.0  0.2698056825372716  0.017654850717222503  0.17238535406043937  1.0000
  H   H804      1.0  0.2541656879658055  0.0382085471467668  0.13147373278075497  1.0000
  H   H805      1.0  0.29641849249135865  0.9604409865123175  0.22410643235572084  1.0000
  H   H806      1.0  0.3368630560801349  0.9902993139233369  0.24588376876033807  1.0000
  H   H807      1.0  0.2790710946982461  0.06840674849113167  0.2430731109516592  1.0000
  H   H808      1.0  0.24060151398632842  0.039364754087286666  0.2198799224174148  1.0000
  H   H809      1.0  0.18781443588816227  0.015107328827583588  0.22267527371658416  1.0000
  H   H810      1.0  0.14939642971472722  0.001419271356370544  0.2531620140320973  1.0000
  H   H811      1.0  0.2050339110440872  0.9268008335699611  0.27574868212702847  1.0000
  H   H812      1.0  0.24066908748019644  0.9376995389633402  0.24267514170441265  1.0000
  C   C1277     1.0  0.19266787152480286  0.04387779080988253  0.9141219677295346  1.0000
  C   C1278     1.0  0.16582968727464983  0.0368687025126911  0.9004283816596133  1.0000
  C   C1279     1.0  0.16819154440620587  0.019189267545482558  0.8787562775078737  1.0000
  C   C1280     1.0  0.19661437891713332  0.010689330639081174  0.868805133013021  1.0000
  C   C1281     1.0  0.22267746819294545  0.018844082604957624  0.8828986016438777  1.0000
  C   C1282     1.0  0.22077538437593477  0.033462259103195086  0.9059023721229421  1.0000
  H   H813      1.0  0.14315960149980717  0.0431782515088749  0.9069126017505681  1.0000
  H   H814      1.0  0.14657230888036096  0.011213900294550161  0.8692413685340411  1.0000
  H   H815      1.0  0.245606757569538  0.011569999064002134  0.8775528031976906  1.0000
  H   H816      1.0  0.2420831533291475  0.03666738587380031  0.9168675728727982  1.0000
  C   C1283     1.0  0.23752075627799094  0.02561487228714432  0.8216802168606996  1.0000
  C   C1284     1.0  0.23076144120512368  0.9962794764121493  0.8288742763301566  1.0000
  C   C1285     1.0  0.24801648793359848  0.9732884281881687  0.8186571812325766  1.0000
  C   C1286     1.0  0.2719704685340268  0.978647107112038  0.8025088137000718  1.0000
  C   C1287     1.0  0.2794335442997212  0.007862624770470727  0.796395776464722  1.0000
  C   C1288     1.0  0.2627298086096806  0.031712700051772756  0.8064272801344996  1.0000
  C   C1289     1.0  0.20040549847471611  0.9885247150033226  0.8447394734367359  1.0000
  C   C1290     1.0  0.17409584615811766  0.9909449748763264  0.8225928674902024  1.0000
  C   C1291     1.0  0.16825478533031524  0.9665881593150212  0.8064980727409808  1.0000
  C   C1292     1.0  0.1442830853877512  0.966550501661631  0.788775048042688  1.0000
  C   C1293     1.0  0.12359297520650998  0.9898078096292379  0.7882393202098562  1.0000
  C   C1294     1.0  0.13058568555922773  0.015476672961665106  0.8023060024490712  1.0000
  C   C1295     1.0  0.15602828275426922  0.016413684292740705  0.8187356270938128  1.0000
  C   C1296     1.0  0.22658487406623984  0.9463040159344169  0.8727063796242505  1.0000
  C   C1297     1.0  0.22426251522294896  0.9260089112738694  0.8918758694711895  1.0000
  C   C1298     1.0  0.19564738794231593  0.9135033792712659  0.898471061756088  1.0000
  C   C1299     1.0  0.17050928892081496  0.9194853580024411  0.88238583357531  1.0000
  C   C1300     1.0  0.17273076783612779  0.9418039128515606  0.8644179047248652  1.0000
  C   C1301     1.0  0.20008695934484994  0.9568135408059669  0.8598871779100583  1.0000
  C   C1302     1.0  0.1905694586557925  0.8963383348414175  0.9248690507188805  1.0000
  C   C1303     1.0  0.24470814752053627  0.8156130212590608  0.9092372778823208  1.0000
  C   C1304     1.0  0.25781559275405486  0.839614332629636  0.922676393231647  1.0000
  C   C1305     1.0  0.24100084094264262  0.8647307798427948  0.9274501108849171  1.0000
  C   C1306     1.0  0.2105195077016885  0.8671811438071918  0.9189473448523992  1.0000
  C   C1307     1.0  0.19797412213857363  0.8437278647749612  0.9044444270921638  1.0000
  C   C1308     1.0  0.2143055268105059  0.817700025368089  0.9000820718819612  1.0000
  C   C1309     1.0  0.15568769326912163  0.8894068847206326  0.933434956103125  1.0000
  C   C1310     1.0  0.13477542181705754  0.9134219484143073  0.9343916129474678  1.0000
  C   C1311     1.0  0.1061501773210099  0.9102081050145765  0.9449856308417188  1.0000
  C   C1312     1.0  0.09684888326350494  0.8819524120781231  0.9531841799977357  1.0000
  C   C1313     1.0  0.11730348499787151  0.8583628935214961  0.9538002670054925  1.0000
  C   C1314     1.0  0.14651183733597747  0.862178578394795  0.9444728627731511  1.0000
  C   C1315     1.0  0.20839738454925744  0.9023651875297859  0.972041799713419  1.0000
  C   C1316     1.0  0.21072636801064654  0.9194255668993612  0.993997074291084  1.0000
  C   C1317     1.0  0.2110997800754704  0.950577806664064  0.9929964112319015  1.0000
  C   C1318     1.0  0.20685151278645264  0.9647130371175423  0.9695487519770619  1.0000
  C   C1319     1.0  0.20182644373011602  0.9474335296713563  0.9479225673538509  1.0000
  C   C1320     1.0  0.2024182837998226  0.9157051559355495  0.948548220930051  1.0000
  H   H817      1.0  0.22452844595325494  0.044668071013370635  0.8299801716422167  1.0000
  H   H818      1.0  0.24245156717485186  0.9494770251935032  0.8216725636059449  1.0000
  H   H819      1.0  0.2835860871055933  0.9600273514096809  0.7934301402472596  1.0000
  H   H820      1.0  0.2652433433075799  0.055187586856585084  0.8009915559449443  1.0000
  H   H821      1.0  0.1842761965461308  0.9477632082881347  0.8068329026365009  1.0000
  H   H822      1.0  0.14334906817429693  0.9471426081079711  0.7764973141023939  1.0000
  H   H823      1.0  0.1155409901359344  0.03459370059127665  0.8016114695800785  1.0000
  H   H824      1.0  0.16012495617506417  0.03696059002333931  0.8294807967694698  1.0000
  H   H825      1.0  0.24815757333502989  0.9566914814230437  0.8708198523272067  1.0000
  H   H826      1.0  0.24432778985148115  0.9226043509256948  0.9042741421738709  1.0000
  H   H827      1.0  0.1482338285453784  0.9091683554329519  0.8843029738913727  1.0000
  H   H828      1.0  0.1523548109067491  0.9489260473423251  0.854043917904813  1.0000
  H   H829      1.0  0.2813361180331277  0.8388220577437279  0.9298972390927457  1.0000
  H   H830      1.0  0.252763813729171  0.88214450114657  0.9377092988836483  1.0000
  H   H831      1.0  0.17480233827848035  0.8446776366764905  0.8957732894550416  1.0000
  H   H832      1.0  0.20402782556452767  0.8007017211671087  0.8875460405936945  1.0000
  H   H833      1.0  0.1399828566592044  0.9356921487436052  0.9275017703545116  1.0000
  H   H834      1.0  0.09145211266135643  0.9292527371783547  0.9449186648626148  1.0000
  H   H835      1.0  0.11131262092822623  0.8375150473438439  0.9633725753899854  1.0000
  H   H836      1.0  0.16249422940257666  0.8432133337152569  0.94694869068631  1.0000
  H   H837      1.0  0.20591096043216467  0.8783350501076974  0.9735705373506787  1.0000
  H   H838      1.0  0.2109848190739277  0.9088206445928779  0.012102761727113887  1.0000
  H   H839      1.0  0.20654427863769556  0.9892506191838673  0.9699027150094688  1.0000
  H   H840      1.0  0.19684421346111228  0.9597127158768668  0.9307008308419936  1.0000
  C   C1321     1.0  0.26863733120705335  0.2233255638047633  0.1899030801999363  1.0000
  C   C1322     1.0  0.25666061799487777  0.23777516505253923  0.16864195582852642  1.0000
  C   C1323     1.0  0.23101088993803573  0.22659841358768795  0.15580993491262002  1.0000
  C   C1324     1.0  0.21926023186577906  0.19816230316900568  0.1615695831096697  1.0000
  C   C1325     1.0  0.23084036607568884  0.18400633854331314  0.18343301863027775  1.0000
  C   C1326     1.0  0.2543136888006238  0.1971729914535098  0.19762234427693753  1.0000
  H   H841      1.0  0.26792379422060386  0.25799518489045736  0.1616667794450549  1.0000
  H   H842      1.0  0.22250398162236276  0.239464912673046  0.13942508180819374  1.0000
  H   H843      1.0  0.2219733239895896  0.16249252268749223  0.18920701667999257  1.0000
  H   H844      1.0  0.26389021159863624  0.18551667036054273  0.21357938044057379  1.0000
  C   C1327     1.0  0.22564664153552824  0.13359776483970975  0.1363863570078236  1.0000
  C   C1328     1.0  0.1963977539956732  0.14681691333191405  0.1375102374685574  1.0000
  C   C1329     1.0  0.17141484404785032  0.1301358289892625  0.12744218950732594  1.0000
  C   C1330     1.0  0.17629819308063077  0.10380578219790547  0.11431551828336203  1.0000
  C   C1331     1.0  0.20507229028209678  0.09166899166866115  0.11347059895843857  1.0000
  C   C1332     1.0  0.22964712236282495  0.10583121148996001  0.12585739177898783  1.0000
  C   C1333     1.0  0.19237097856239108  0.18232212624125696  0.14480608522625257  1.0000
  C   C1334     1.0  0.18867092720960227  0.19443593174313628  0.11558021863158309  1.0000
  C   C1335     1.0  0.15963910537613807  0.195970254283202  0.1037773691488206  1.0000
  C   C1336     1.0  0.15662009144758443  0.2020036126036471  0.07798016068427535  1.0000
  C   C1337     1.0  0.18238769389821569  0.20717202431659618  0.06358247517691773  1.0000
  C   C1338     1.0  0.21148684453497835  0.2073504748336888  0.07533959646252064  1.0000
  C   C1339     1.0  0.2147395571714962  0.2000798563232521  0.10043174883278531  1.0000
  C   C1340     1.0  0.1534895055150392  0.16745071553673022  0.17911084300753743  1.0000
  C   C1341     1.0  0.1275933363891269  0.1733683239484438  0.19366178494135877  1.0000
  C   C1342     1.0  0.11274488940667024  0.20126426997295535  0.1930820508936871  1.0000
  C   C1343     1.0  0.12360681374719665  0.2228986196112607  0.1768345737121084  1.0000
  C   C1344     1.0  0.14899279996865203  0.21704322796794004  0.16171805625191166  1.0000
  C   C1345     1.0  0.16397182457382103  0.189342066631238  0.16299289716268275  1.0000
  C   C1346     1.0  0.08127312925682222  0.20518062281617325  0.20866599088802967  1.0000
  C   C1347     1.0  0.007293587321810735  0.18982139439302026  0.15151837230889867  1.0000
  C   C1348     1.0  0.02161866584722552  0.165918123930402  0.1635332169483675  1.0000
  C   C1349     1.0  0.047234253487310564  0.1698603760591865  0.17920670002334058  1.0000
  C   C1350     1.0  0.05676903531611215  0.19878338746572582  0.1861367222037591  1.0000
  C   C1351     1.0  0.043336193620461365  0.22271371785384192  0.17264537339073174  1.0000
  C   C1352     1.0  0.01988377095338394  0.2180789794468131  0.15521929497692286  1.0000
  C   C1353     1.0  0.0743470642369017  0.2361738043354397  0.22287043171283008  1.0000
  C   C1354     1.0  0.097584235386752  0.25694986356804117  0.22747577776149583  1.0000
  C   C1355     1.0  0.09233669353281361  0.28254241459984375  0.24188876977836296  1.0000
  C   C1356     1.0  0.06296910140077479  0.2884700227128724  0.25107076217036417  1.0000
  C   C1357     1.0  0.03867403865721598  0.26883926233881855  0.24453488260981485  1.0000
  C   C1358     1.0  0.044962965290119256  0.24243525273429073  0.2316314950933205  1.0000
  C   C1359     1.0  0.057324177052704595  0.1641850789535247  0.23846967821668213  1.0000
  C   C1360     1.0  0.062263872375435  0.14053960340483104  0.25506958777971667  1.0000
  C   C1361     1.0  0.08965797031182002  0.1387250745640667  0.2690712173535164  1.0000
  C   C1362     1.0  0.11094710371548938  0.16190867049096333  0.26772424451668186  1.0000
  C   C1363     1.0  0.10657879209393865  0.18427444563134632  0.25008923224806856  1.0000
  C   C1364     1.0  0.08092635165316288  0.18406755760082016  0.23371509370029891  1.0000
  H   H845      1.0  0.24570827219180738  0.14609545200041166  0.142275919204335  1.0000
  H   H846      1.0  0.14733980912665473  0.13819509219220952  0.12896308255846198  1.0000
  H   H847      1.0  0.15623027045973142  0.09261156408648663  0.10594878885410965  1.0000
  H   H848      1.0  0.2524970113289279  0.09611150929123631  0.12491680676963009  1.0000
  H   H849      1.0  0.138997904069769  0.18990175554158034  0.1128920128989801  1.0000
  H   H850      1.0  0.13456462420253842  0.20065248523265145  0.06876812926736177  1.0000
  H   H851      1.0  0.2320059896026946  0.21037397887701334  0.06457261501081242  1.0000
  H   H852      1.0  0.23736349035664336  0.19541301804335778  0.1085746205604615  1.0000
  H   H853      1.0  0.16411590800780548  0.144672139270238  0.1803378510760914  1.0000
  H   H854      1.0  0.1201668451603786  0.15427475523641906  0.2050842676628106  1.0000
  H   H855      1.0  0.11111416326242  0.24503613600689828  0.17563951798215552  1.0000
  H   H856      1.0  0.15797941545193767  0.23395218738131318  0.14918317295185815  1.0000
  H   H857      1.0  0.011625859944387695  0.14365973259320328  0.16109048936202286  1.0000
  H   H858      1.0  0.05536159969304495  0.14962531018019795  0.18755333965886176  1.0000
  H   H859      1.0  0.04889759924004347  0.24624813971710127  0.1767561278508723  1.0000
  H   H860      1.0  0.008928764388584254  0.23738335303552283  0.1465598285533016  1.0000
  H   H861      1.0  0.12114429906834663  0.2535613937996036  0.22154833195394846  1.0000
  H   H862      1.0  0.11219164038274008  0.29787637190613  0.24566182437245057  1.0000
  H   H863      1.0  0.015220768888117828  0.2724317883894674  0.2512888799308743  1.0000
  H   H864      1.0  0.025869202359558988  0.22747789198192622  0.22777808132430813  1.0000
  H   H865      1.0  0.0348004805797188  0.1639697668976092  0.2284209547237064  1.0000
  H   H866      1.0  0.04559243436840895  0.12210474986845087  0.2555000833596709  1.0000
  H   H867      1.0  0.13208276792303075  0.16136270572514885  0.2799101393999192  1.0000
  H   H868      1.0  0.12454604368489879  0.20061847061296453  0.2469800975039548  1.0000
  C   C1365     1.0  0.04721283887999383  0.2119352459671598  0.929306025162942  1.0000
  C   C1366     1.0  0.06454974357496808  0.1899376248724369  0.9177266507190179  1.0000
  C   C1367     1.0  0.0742562852004393  0.19302021406795225  0.8931520497015427  1.0000
  C   C1368     1.0  0.06901686334484976  0.21946713423573508  0.8798411263693583  1.0000
  C   C1369     1.0  0.05273967374628929  0.24248147326774253  0.892474736655748  1.0000
  C   C1370     1.0  0.04175862304022385  0.23829142522814864  0.9166150154658917  1.0000
  H   H869      1.0  0.07128484724875024  0.16969722082743416  0.9278136404857673  1.0000
  H   H870      1.0  0.08741699397810296  0.17466511071933036  0.8852079712661209  1.0000
  H   H871      1.0  0.04985031913769321  0.26438515517788186  0.883497468828436  1.0000
  H   H872      1.0  0.029652159497964795  0.25675006886579727  0.9259213732476574  1.0000
  C   C1371     1.0  0.04378751266711987  0.25776438183751227  0.833062519994689  1.0000
  C   C1372     1.0  0.07469913018304812  0.25497014690162845  0.838414058381942  1.0000
  C   C1373     1.0  0.09445173755026125  0.2780302179296634  0.8306708778838323  1.0000
  C   C1374     1.0  0.08301010531050847  0.30440687357186924  0.8209435910905557  1.0000
  C   C1375     1.0  0.05187466039532945  0.30653869167885023  0.815456207431406  1.0000
  C   C1376     1.0  0.032461176204137986  0.2828295823097932  0.8211770153605753  1.0000
  C   C1377     1.0  0.08608248840825738  0.22509526915998426  0.8531025675699798  1.0000
  C   C1378     1.0  0.08104297684652514  0.20003455243685625  0.8312544385588813  1.0000
  C   C1379     1.0  0.09803491652421831  0.20285310642149926  0.8091288790629233  1.0000
  C   C1380     1.0  0.09615793800391333  0.1808336985002994  0.7904951170488163  1.0000
  C   C1381     1.0  0.07883873337503652  0.15533887516725958  0.7939716080211576  1.0000
  C   C1382     1.0  0.05989270940083483  0.1542262550875181  0.8147693278171679  1.0000
  C   C1383     1.0  0.06019090443703701  0.17685175627256886  0.832721950158103  1.0000
  C   C1384     1.0  0.1314384813603817  0.24901105385477929  0.8800630707572459  1.0000
  C   C1385     1.0  0.15691294648434345  0.24597569848862869  0.8956623172610979  1.0000
  C   C1386     1.0  0.17381855110128183  0.21954159575372034  0.8951839888389266  1.0000
  C   C1387     1.0  0.16660004416670215  0.19818666621627407  0.8762632297715166  1.0000
  C   C1388     1.0  0.14098633928528068  0.2010399751900525  0.861385302528299  1.0000
  C   C1389     1.0  0.12202846617679872  0.22655240254121164  0.8631685108861538  1.0000
  C   C1390     1.0  0.19879413874552113  0.21303256250735098  0.9166590216807315  1.0000
  C   C1391     1.0  0.28356622159747275  0.2510260906767966  0.8858623245476513  1.0000
  C   C1392     1.0  0.2675363511358963  0.26702055437372174  0.9039106125730206  1.0000
  C   C1393     1.0  0.2399961970809454  0.25595526635429294  0.9123636324496328  1.0000
  C   C1394     1.0  0.22893907153284285  0.22814176576219414  0.9041937829989461  1.0000
  C   C1395     1.0  0.2437232367795724  0.21395732244260976  0.8836639271193518  1.0000
  C   C1396     1.0  0.2709981950910079  0.22531078708828853  0.8750654954023995  1.0000
  C   C1397     1.0  0.20306033199016665  0.1776792303451149  0.9238779542281415  1.0000
  C   C1398     1.0  0.1775051218497314  0.1588693544222075  0.9263824818466307  1.0000
  C   C1399     1.0  0.18055743848327346  0.1288595739035443  0.9321147696579322  1.0000
  C   C1400     1.0  0.20961906718918233  0.11625406091643718  0.9354515887309994  1.0000
  C   C1401     1.0  0.23510725107347397  0.13525832492521167  0.9341275756584292  1.0000
  C   C1402     1.0  0.23176907544256944  0.1655495594310835  0.9286306254308361  1.0000
  C   C1403     1.0  0.2148667754357497  0.22970518659858682  0.9624407916235957  1.0000
  C   C1404     1.0  0.2096258380372244  0.23826132960770108  0.9867609219204758  1.0000
  C   C1405     1.0  0.17995173991954866  0.24145284171783815  0.9950895764073233  1.0000
  C   C1406     1.0  0.15527365677375282  0.23578142041423517  0.978227542868939  1.0000
  C   C1407     1.0  0.1609844739231473  0.2272410762838212  0.9535553628533406  1.0000
  C   C1408     1.0  0.19107752927075605  0.2248775932362122  0.9449186648626148  1.0000
  H   H873      1.0  0.027228269119016393  0.2406171751900527  0.838414058381942  1.0000
  H   H874      1.0  0.11932041036610165  0.2755455042298842  0.8322130087169126  1.0000
  H   H875      1.0  0.09934058779650605  0.3215453150653201  0.8156264923496989  1.0000
  H   H876      1.0  0.007970488601747538  0.2830968935042422  0.815601619271746  1.0000
  H   H877      1.0  0.11381603174822799  0.22189557284800038  0.807184952355219  1.0000
  H   H878      1.0  0.1118634389084548  0.18393112667071704  0.7747389788224919  1.0000
  H   H879      1.0  0.04465213290461226  0.13524098948074628  0.8181386732229429  1.0000
  H   H880      1.0  0.04455070196900608  0.1764590225490002  0.8484359954832762  1.0000
  H   H881      1.0  0.11650166627091728  0.2676670018662343  0.8838169922144465  1.0000
  H   H882      1.0  0.16129552304148373  0.26303773428791627  0.9100982690422292  1.0000
  H   H883      1.0  0.17976736293434792  0.17696727189965847  0.875044448951824  1.0000
  H   H884      1.0  0.13521302750775016  0.18150890981448783  0.8497485286737143  1.0000
  H   H885      1.0  0.2781249720076656  0.28691987015621073  0.9119331368696786  1.0000
  H   H886      1.0  0.22913890130669068  0.26927105122667466  0.926726878310594  1.0000
  H   H887      1.0  0.23302144851301695  0.19356943723860867  0.8753639723378345  1.0000
  H   H888      1.0  0.28323739937156983  0.21221213389459437  0.8608036551669387  1.0000
  H   H889      1.0  0.15474259530458473  0.167969613390105  0.923722975819358  1.0000
  H   H890      1.0  0.16016413277297892  0.11587003647273941  0.9346594768638836  1.0000
  H   H891      1.0  0.25721322442967387  0.12581112130687158  0.9388075409409538  1.0000
  H   H892      1.0  0.2526511520915338  0.1799941513242078  0.9294705701401689  1.0000
  H   H893      1.0  0.23867082409671248  0.22590923606454744  0.9573284174474284  1.0000
  H   H894      1.0  0.22863226052854846  0.24126480785103416  0.00040093520711392827  1.0000
  H   H895      1.0  0.13178988302473635  0.23800509156625158  0.9848590881139224  1.0000
  H   H896      1.0  0.1406159654464761  0.22210725933083897  0.9419855549778601  1.0000
  C   C1409     1.0  0.17904808565103625  0.21025959512864495  0.03485827943142156  1.0000
  C   C1410     1.0  0.1736256967672091  0.24190232901847256  0.023946173460076547  1.0000
  H   H897      1.0  0.19984063496656282  0.19996687627499363  0.025568663468081843  1.0000
  H   H898      1.0  0.1602859325398461  0.19548701108042876  0.027397791354464962  1.0000
  H   H899      1.0  0.18893735973244735  0.25799968783866956  0.03439669282767621  1.0000
  H   H900      1.0  0.1499863670250382  0.25051465844398724  0.026883109972208663  1.0000
  C   C1411     1.0  0.18987216809955332  0.05916552434875928  0.9403420185192793  1.0000
  C   C1412     1.0  0.21317722741550998  0.08444921877897131  0.947417452540038  1.0000
  H   H901      1.0  0.16569405968182596  0.06683340926775506  0.9430531840161466  1.0000
  H   H902      1.0  0.19190988178522403  0.041826720661943796  0.9555605155990831  1.0000
  H   H903      1.0  0.23648191690719275  0.07567412330846804  0.9438223361189981  1.0000
  H   H904      1.0  0.21352405430126742  0.08777239305469758  0.9681520329843216  1.0000
  C   C1413     1.0  0.19624655061594132  0.0343997445711719  0.10681724193740395  1.0000
  C   C1414     1.0  0.21047361142848234  0.06399111923499112  0.09606824563436939  1.0000
  H   H905      1.0  0.2002568186570241  0.015444731841670167  0.09366474097864277  1.0000
  H   H906      1.0  0.17032297642909652  0.03588992110571993  0.10589521607082647  1.0000
  H   H907      1.0  0.2026329852715527  0.06803624888559894  0.07591971317293005  1.0000
  H   H908      1.0  0.2350945262362371  0.06085324127775221  0.09276261357442762  1.0000
  C   C1415     1.0  0.21461142377020287  0.9702380300474209  0.017090770513516818  1.0000
  C   C1416     1.0  0.24801555712422507  0.9732845393696571  0.02807127777288221  1.0000
  H   H909      1.0  0.20568631245289679  0.9932361713930505  0.011915256985622902  1.0000
  H   H910      1.0  0.19950736242042294  0.9617870958794258  0.032047143617970564  1.0000
  H   H911      1.0  0.2522049225820112  0.9972790387033373  0.03166639419392214  1.0000
  H   H912      1.0  0.26511147728365103  0.9675348809284375  0.01319143721597582  1.0000
  C   C1417     1.0  0.03731927522347553  0.8948901790636744  0.9524054613264408  1.0000
  C   C1418     1.0  0.06497942935580842  0.8783166692348813  0.9647616411279711  1.0000
  H   H913      1.0  0.04112182672151753  0.9199485039763653  0.951948179354845  1.0000
  H   H914      1.0  0.017086146323255415  0.8912433727375052  0.9648113872838769  1.0000
  H   H915      1.0  0.058150212158596934  0.8542042231407906  0.9672623421190829  1.0000
  H   H916      1.0  0.06689395325617074  0.8875196083869871  0.9846696700587427  1.0000
  C   C1419     1.0  0.10266032599949307  0.8842408350027412  0.14602563137142063  1.0000
  C   C1420     1.0  0.10402449868408921  0.8839581694477102  0.11628202209259289  1.0000
  H   H917      1.0  0.10277144244087108  0.90854550716356  0.15147379209995232  1.0000
  H   H918      1.0  0.12431592645454999  0.8744492873893778  0.15353691825046178  1.0000
  H   H919      1.0  0.08945557363607057  0.902642644420748  0.10795891621544253  1.0000
  H   H920      1.0  0.0946535797251324  0.8625101827138442  0.10776375821919663  1.0000
  C   C1421     1.0  0.9945677832738429  0.8141724930153732  0.037539023240638666  1.0000
  C   C1422     1.0  0.9996394030870436  0.8414602876589643  0.02033383721583859  1.0000
  H   H921      1.0  0.016932258094114687  0.8049738467948492  0.04340486034741037  1.0000
  H   H922      1.0  0.9836097978425992  0.7951845551575085  0.025790607855969316  1.0000
  H   H923      1.0  0.022427092668612283  0.839120050419715  0.01144840844558348  1.0000
  H   H924      1.0  0.0015723872755752932  0.8616098431775109  0.032213601908886114  1.0000
  C   C1423     1.0  0.9025336545712401  0.9938045361693205  0.910033216376814  1.0000
  C   C1424     1.0  0.9046196849361734  0.9913054772019527  0.9396819252966829  1.0000
  H   H925      1.0  0.8842276740180409  0.9779840879731481  0.9028487234758003  1.0000
  H   H926      1.0  0.9239601136257433  0.9854739858706628  0.9010923015095871  1.0000
  H   H927      1.0  0.8850721226308775  0.002268002389490542  0.9486840662019477  1.0000
  H   H928      1.0  0.9250555433717232  0.0033701743677578833  0.9480718058215684  1.0000
  C   C1425     1.0  0.04006107515261209  0.2108923739718118  0.9577110801851655  1.0000
  C   C1426     1.0  0.018995607182639564  0.18507733425413503  0.9668528929897042  1.0000
  H   H929      1.0  0.02985473490757476  0.23209923537946003  0.964160860629724  1.0000
  H   H930      1.0  0.06244880017398555  0.21044293352071322  0.9683337977847468  1.0000
  H   H931      1.0  0.01911653994013903  0.18511066945901125  0.9880581486014045  1.0000
  H   H932      1.0  0.03028501824259545  0.1634251806047255  0.9618840173401884  1.0000
  C   C1427     1.0  0.8999399202953512  0.991218477432628  0.11551516596616779  1.0000
  C   C1428     1.0  0.8838720732286768  0.9642750543457677  0.1022939770459828  1.0000
  H   H933      1.0  0.8931773779099337  0.011823796602178582  0.10538550930416067  1.0000
  H   H934      1.0  0.9253447099010119  0.9899532249367814  0.11213395801552294  1.0000
  H   H935      1.0  0.8876916641512307  0.9656728223806932  0.08134089617845126  1.0000
  H   H936      1.0  0.8585442800027003  0.9662598839475148  0.10374713879253937  1.0000
  C   C1429     1.0  0.9750532665050075  0.1860840956663472  0.1393037777203311  1.0000
  C   C1430     1.0  0.9707724382085525  0.1742125098191069  0.11156914781462302  1.0000
  H   H937      1.0  0.9633203413451056  0.1725449709379403  0.15347588354379274  1.0000
  H   H938      1.0  0.9623711976979927  0.2074406001868666  0.14061439759708058  1.0000
  H   H939      1.0  0.9889196090336857  0.1574959570711726  0.10757587081496772  1.0000
  H   H940      1.0  0.9741385449949395  0.1913652490628682  0.0962542197249096  1.0000
  C   C1431     1.0  0.8537049836752691  0.06109684066908483  0.03177353976048858  1.0000
  C   C1432     1.0  0.8845335732629747  0.07045776671577277  0.02033766384321578  1.0000
  H   H941      1.0  0.8336953918487905  0.06583644355351832  0.01831911790165286  1.0000
  H   H942      1.0  0.8542809461089722  0.03633375795522516  0.033394116454805056  1.0000
  H   H943      1.0  0.9014216408517042  0.07873704622304915  0.03555989156106249  1.0000
  H   H944      1.0  0.8946332109660813  0.05049150326473344  0.01155364069846132  1.0000
  C   C1433     1.0  0.33969658420717014  0.04510775758476317  0.28941165517793094  1.0000
  C   C1434     1.0  0.33803520348249627  0.04922846447002248  0.26015900219161986  1.0000
  H   H945      1.0  0.35974362923569336  0.05871232586768397  0.2964124699648308  1.0000
  H   H946      1.0  0.3439089862290058  0.021413864104051994  0.2939213355421624  1.0000
  H   H947      1.0  0.3602417828548734  0.04121414592652717  0.25200063262306527  1.0000
  H   H948      1.0  0.3367069603117138  0.07342110559005127  0.2559592786449554  1.0000
  C   C1435     1.0  0.1231864509984666  0.09143894400307788  0.265491407441986  1.0000
  C   C1436     1.0  0.09963873941572113  0.10935487809926821  0.28132790484323505  1.0000
  H   H949      1.0  0.11347952284239356  0.06856666340558804  0.260553144811489  1.0000
  H   H950      1.0  0.1275166655553733  0.10316526387941027  0.24719630195077624  1.0000
  H   H951      1.0  0.10837814959836968  0.11464387620372876  0.30093745683857176  1.0000
  H   H952      1.0  0.07956090647489639  0.09504103785056942  0.2849134546958315  1.0000
  C   C1437     1.0  0.2575560539435713  0.1891383363138641  0.5171763433064183  1.0000
  C   C1438     1.0  0.22780881135994382  0.19288127163069396  0.5330587602361957  1.0000
  H   H953      1.0  0.27024101956594343  0.1677416618172242  0.5228512317070592  1.0000
  H   H954      1.0  0.27368396113024546  0.20782775702070133  0.5226541603971245  1.0000
  H   H955      1.0  0.2117855747066749  0.17457640650820636  0.5272384599952148  1.0000
  H   H956      1.0  0.21586373949946616  0.21383552706530734  0.5271274878012709  1.0000
  C   C1439     1.0  0.3124343461420006  0.041707690636746286  0.7643994316488361  1.0000
  C   C1440     1.0  0.3072956829569728  0.011510058597118178  0.778211643167456  1.0000
  H   H957      1.0  0.33340260681025086  0.03858892890067387  0.7515821432483326  1.0000
  H   H958      1.0  0.320802199720244  0.05822107029311455  0.778655531943231  1.0000
  H   H959      1.0  0.3296086902349809  0.004842226700271457  0.7887482616510465  1.0000
  H   H960      1.0  0.3058303500712644  0.9938852324153258  0.7631060315952848  1.0000
  C   C1441     1.0  0.0810902529858209  0.12843947314474968  0.775121641560229  1.0000
  C   C1442     1.0  0.10526863245236763  0.10460220637446065  0.7838769649996534  1.0000
  H   H961      1.0  0.05826318274967789  0.11802211498145299  0.7748269912521715  1.0000
  H   H962      1.0  0.08521963686898679  0.13458028013857853  0.7552155259431462  1.0000
  H   H963      1.0  0.11450657022118409  0.11003683945244574  0.803036888278149  1.0000
  H   H964      1.0  0.09219902646288121  0.08371941614089233  0.787376415736259  1.0000
  C   C1443     1.0  0.9454945116311984  0.9387744828690597  0.2784981138976694  1.0000
  C   C1444     1.0  0.9720735899887502  0.921572375364543  0.29282883342592303  1.0000
  H   H965      1.0  0.936258445205892  0.9242485447432263  0.26323561060302597  1.0000
  H   H966      1.0  0.9566369600151647  0.9575972817398017  0.26806864098064526  1.0000
  H   H967      1.0  0.989106467123072  0.9369130217431235  0.3013775189869694  1.0000
  H   H968      1.0  0.9623342450043807  0.9097319014107487  0.30944596281215575  1.0000
  C   C1445     1.0  0.7499641959832993  0.9825916319631358  0.28722856425914084  1.0000
  C   C1446     1.0  0.7610526799528075  0.9720865798806847  0.26040773297114894  1.0000
  H   H969      1.0  0.7418171203544747  0.005813993726134781  0.2865780376049878  1.0000
  H   H970      1.0  0.7307346736732124  0.9681768562413758  0.2930029449715934  1.0000
  H   H971      1.0  0.7413496641985696  0.9749036674050958  0.24736658686906923  1.0000
  H   H972      1.0  0.7661371929260553  0.9476365667478779  0.26049765871451713  1.0000
  C   C1447     1.0  0.8696884357634836  0.0034200623770306304  0.5323278744071179  1.0000
  C   C1448     1.0  0.8392511466966965  0.006450308083313816  0.5461860054542663  1.0000
  H   H973      1.0  0.8748588025416274  0.02554704890912436  0.5240872323499499  1.0000
  H   H974      1.0  0.8897351304992106  0.9989330097636197  0.5460539868097469  1.0000
  H   H975      1.0  0.818973988572243  0.004163368007134238  0.5331869522533377  1.0000
  H   H976      1.0  0.8371022679343765  0.02989138555126993  0.552731451583259  1.0000
  C   C1449     1.0  0.9437061606864878  0.9775796012835013  0.7941591127626487  1.0000
  C   C1450     1.0  0.9632852547079128  0.9539506608079944  0.7803028950291891  1.0000
  H   H977      1.0  0.932247415117419  0.9677919535791605  0.8109063474797121  1.0000
  H   H978      1.0  0.9606044188309076  0.9943382731328564  0.8019558660440417  1.0000
  H   H979      1.0  0.9860894829216663  0.963865141887654  0.7747294122540486  1.0000
  H   H980      1.0  0.9522437375218581  0.9478585012379848  0.7613687427659583  1.0000
  C   C1451     1.0  0.7461112861649464  0.0778053297671794  0.792071687528293  1.0000
  C   C1452     1.0  0.7571335238696479  0.08711815650507873  0.7652240698486595  1.0000
  H   H981      1.0  0.7357375594865314  0.054825523864385356  0.792484963285049  1.0000
  H   H982      1.0  0.727270655506085  0.09381310602097233  0.7986764463816349  1.0000
  H   H983      1.0  0.7647608428312794  0.11153527110577657  0.7651800636338197  1.0000
  H   H984      1.0  0.7361214900959531  0.08807955195529961  0.752624899208666  1.0000
  C   C1453     1.0  0.07246225582744656  0.726408014045557  0.2952549151831761  1.0000
  C   C1454     1.0  0.041744490834274374  0.7275896486783565  0.27897261569246334  1.0000
  H   H985      1.0  0.09114794059079724  0.7230097963104417  0.2817985800106517  1.0000
  H   H986      1.0  0.07369371805615244  0.70569962458088  0.30684385619554355  1.0000
  H   H987      1.0  0.02161059655472789  0.7269751105873439  0.2924404307471199  1.0000
  H   H988      1.0  0.03866848821245317  0.7065794337572959  0.26787730961177675  1.0000
  C   C1455     1.0  0.14711377338717532  0.9505476723249853  0.2832373919045431  1.0000
  C   C1456     1.0  0.12436549302139789  0.9302067727008093  0.2675023001287944  1.0000
  H   H989      1.0  0.15800532510964693  0.9364556594812163  0.2989935301308674  1.0000
  H   H990      1.0  0.13355382728591522  0.9691709794667136  0.2924672171387615  1.0000
  H   H991      1.0  0.10391812644394059  0.9442538226662311  0.26082866198265975  1.0000
  H   H992      1.0  0.13538603505574268  0.9224290394763515  0.24981371507689787  1.0000
  C   C1457     1.0  0.0034038423246889327  0.881416859457785  0.4165398699089436  1.0000
  C   C1458     1.0  0.0031294460977058236  0.8799148550039029  0.44652914866539856  1.0000
  H   H993      1.0  0.9979179147943001  0.9051196796360922  0.4111443253068508  1.0000
  H   H994      1.0  0.9841582156817045  0.8681318569789851  0.4087182435495976  1.0000
  H   H995      1.0  0.020527207277378987  0.8953570825367173  0.45477361734994387  1.0000
  H   H996      1.0  0.010458658657927833  0.8579265711212805  0.45381504719191257  1.0000
  C   C1459     1.0  0.19969568087466527  0.026757891940705547  0.43617429498223315  1.0000
  C   C1460     1.0  0.21991312079292685  0.0003674225837608791  0.44614839924135014  1.0000
  H   H997      1.0  0.20368843666370276  0.045305090375932895  0.4502696769267785  1.0000
  H   H998      1.0  0.17530331286081158  0.020111272002362846  0.4372400107068309  1.0000
  H   H999      1.0  0.21546504358219157  0.9987688361791358  0.46692124595940754  1.0000
  H   H1000     1.0  0.24526916613121275  0.00720713686557839  0.445693030583443  1.0000
  C   C1461     1.0  0.991079378711563  0.8707000358958216  0.6079649911482291  1.0000
  C   C1462     1.0  0.9722045256152877  0.8970215602673947  0.5976139640924412  1.0000
  H   H1001     1.0  0.007982862375440991  0.8657654491424002  0.5941279065516563  1.0000
  H   H1002     1.0  0.9753611123685327  0.8504208616303115  0.6069279751289616  1.0000
  H   H1003     1.0  0.9693410494868931  0.8940182557468621  0.5765464670663262  1.0000
  H   H1004     1.0  0.9863590802207125  0.9177629374043257  0.5997415689142593  1.0000
  C   C1463     1.0  0.16440710985921594  0.024932360010881546  0.6122316806739976  1.0000
  C   C1464     1.0  0.18187416210320326  0.9975687664823979  0.6012683932378302  1.0000
  H   H1005     1.0  0.13929926375064863  0.01987121450605911  0.6127961082121597  1.0000
  H   H1006     1.0  0.16587771494069303  0.04264782622518383  0.59749916527112  1.0000
  H   H1007     1.0  0.2066967569545754  0.003863253268191924  0.6000783121234678  1.0000
  H   H1008     1.0  0.17582189220280084  0.9946239817795497  0.5809566551187461  1.0000
  C   C1465     1.0  0.12779819565655803  0.8473203071264829  0.5318782456902769  1.0000
  C   C1466     1.0  0.13227941341262836  0.876665930274824  0.5163096122054437  1.0000
  H   H1009     1.0  0.1384127188350177  0.8285821097543998  0.5219213612543581  1.0000
  H   H1010     1.0  0.10252721382109138  0.8428271653912296  0.5315893353232853  1.0000
  H   H1011     1.0  0.1456878465322636  0.8934286527276979  0.5283060890335012  1.0000
  H   H1012     1.0  0.1094919194702305  0.8878510701647078  0.5136883724519448  1.0000
  C   C1467     1.0  0.016340322111909087  0.7589872584093076  0.7624440250589997  1.0000
  C   C1468     1.0  0.023459543179166466  0.7553236141327456  0.7917579040833487  1.0000
  H   H1013     1.0  0.9908389189554577  0.756742533833535  0.7586594905827799  1.0000
  H   H1014     1.0  0.024684709111069136  0.737719968893924  0.7533385652145458  1.0000
  H   H1015     1.0  0.04862240914616158  0.7519941416416676  0.7943561840725833  1.0000
  H   H1016     1.0  0.013307082944452245  0.7339636494616918  0.7981005389613407  1.0000
  C   C1469     1.0  0.0678181900621298  0.966025974254698  0.7816938740808633  1.0000
  C   C1470     1.0  0.09351558348445971  0.9879966335751376  0.7720718195404646  1.0000
  H   H1017     1.0  0.04617523639278283  0.9794503484755769  0.7827442832959517  1.0000
  H   H1018     1.0  0.07234923890201207  0.9599342953693186  0.8019175997702681  1.0000
  H   H1019     1.0  0.10047525207756147  0.9834843608452812  0.7522460630983064  1.0000
  H   H1020     1.0  0.08328015759911987  0.011277857229691879  0.7722172313808046  1.0000
  C   C1471     1.0  0.9631466841363598  0.12465527305460986  0.2766900324618617  1.0000
  C   C1472     1.0  0.9493855776636756  0.09649270978303731  0.28962977293844105  1.0000
  H   H1021     1.0  0.9461721770860636  0.13515622226876603  0.2635551339890364  1.0000
  H   H1022     1.0  0.982610977129253  0.11590445128990651  0.26509343819473946  1.0000
  H   H1023     1.0  0.9373781268361124  0.1034707808901042  0.30699500797694973  1.0000
  H   H1024     1.0  0.9686363691425163  0.08164819597293396  0.29677025962461495  1.0000
  C   C1473     1.0  0.06899771577350913  0.3116056441464086  0.2963569838678589  1.0000
  C   C1474     1.0  0.05726524808605578  0.3156081923391167  0.2688129200055439  1.0000
  H   H1025     1.0  0.06442293475788598  0.3320626956210557  0.3079133985475187  1.0000
  H   H1026     1.0  0.09439187167056409  0.3087777246260331  0.2966879871360015  1.0000
  H   H1027     1.0  0.06869381473770579  0.3365364681250517  0.2620378762339089  1.0000
  H   H1028     1.0  0.032515289083069325  0.32254895061731614  0.26772424451668186  1.0000
  C   C1475     1.0  0.0679133635836459  0.18247812859037998  0.4485170815879427  1.0000
  C   C1476     1.0  0.09571437216468995  0.20043997730330257  0.4606761900795384  1.0000
  H   H1029     1.0  0.048408579034555484  0.18456379350211974  0.461761038941023  1.0000
  H   H1030     1.0  0.0729546596094575  0.15853862402463037  0.44978560856354105  1.0000
  H   H1031     1.0  0.09872901528883422  0.19090189747938588  0.4805899589513761  1.0000
  H   H1032     1.0  0.0893887380518643  0.22424107462985401  0.46280762152873395  1.0000
  C   C1477     1.0  0.9053984779075926  0.09323937046077324  0.43408878306156606  1.0000
  C   C1478     1.0  0.8861176474748614  0.09233740667953799  0.40858239827770104  1.0000
  H   H1033     1.0  0.9258820626202481  0.0784919921336007  0.43279538300801473  1.0000
  H   H1034     1.0  0.8907548502138498  0.08330238290661177  0.44909490232192567  1.0000
  H   H1035     1.0  0.8988946470877703  0.10415151687692407  0.3930979505951701  1.0000
  H   H1036     1.0  0.8648001643767746  0.10544204627283868  0.4111519785616055  1.0000
  C   C1479     1.0  0.05409111210179092  0.20411160881345744  0.6122202007918655  1.0000
  C   C1480     1.0  0.08121865860976442  0.2222191169971014  0.6003653091767707  1.0000
  H   H1037     1.0  0.05948867470193861  0.17951109663077147  0.6133854088282749  1.0000
  H   H1038     1.0  0.03395373892560131  0.20540016996151805  0.5990279029083796  1.0000
  H   H1039     1.0  0.07481840942682101  0.24659812528219008  0.5998353212850048  1.0000
  H   H1040     1.0  0.08159494417896587  0.2173560914177487  0.5797187411621666  1.0000
  C   C1481     1.0  0.9036650859036628  0.1077378671269997  0.6157005183915842  1.0000
  C   C1482     1.0  0.916794592834915  0.09494093598182733  0.6414537206412896  1.0000
  H   H1041     1.0  0.8783167760798918  0.10484168450740762  0.6157273047832257  1.0000
  H   H1042     1.0  0.9124372875928078  0.09549252723597501  0.5984347756648871  1.0000
  H   H1043     1.0  0.9175774944537786  0.11351717562470527  0.656193889298922  1.0000
  H   H1044     1.0  0.9418334808584216  0.08927587435603848  0.6385320906386671  1.0000
  C   C1483     1.0  0.009832830124845593  0.2707493305908268  0.5409741389662872  1.0000
  C   C1484     1.0  0.01931582304613065  0.24110744705788034  0.5273302990522717  1.0000
  H   H1045     1.0  0.999656262535221  0.28804306343442365  0.527297772719564  1.0000
  H   H1046     1.0  0.030769070827219868  0.28081017544812825  0.5491344218485305  1.0000
  H   H1047     1.0  0.021162660069899527  0.2214020338657438  0.540646962325522  1.0000
  H   H1048     1.0  0.04346463493020961  0.2441046337026248  0.5205476020258819  1.0000
  C   C1485     1.0  0.048832156305690856  0.33809410316820987  0.7742989166740943  1.0000
  C   C1486     1.0  0.03993276203980849  0.33467210371527134  0.8024705474262982  1.0000
  H   H1049     1.0  0.03973254282470716  0.36005395615220737  0.7679294954044606  1.0000
  H   H1050     1.0  0.07446350931202031  0.3407603750132365  0.7728027053695423  1.0000
  H   H1051     1.0  0.014089800090653082  0.3358072326778325  0.8030694146108568  1.0000
  H   H1052     1.0  0.047447158382806366  0.35441988124661544  0.8147712411308565  1.0000
  C   C1487     1.0  0.9674201327284156  0.1477257138577838  0.780930461919078  1.0000
  C   C1488     1.0  0.9393072416269178  0.13471756436698157  0.7655952527042644  1.0000
  H   H1053     1.0  0.9848429473959099  0.13042641241719302  0.7822755214422238  1.0000
  H   H1054     1.0  0.9617851420404059  0.1536266864554717  0.8011082680799541  1.0000
  H   H1055     1.0  0.9462628715484952  0.11593634721934187  0.7527664844216289  1.0000
  H   H1056     1.0  0.9296994808131579  0.15191549155608342  0.752236496529863  1.0000
  C   C1489     1.0  0.2729171201641422  0.31431639300663594  0.7094528891371688  1.0000
  C   C1490     1.0  0.2724485171481633  0.2803521110810888  0.7158414435436893  1.0000
  H   H1057     1.0  0.26890541824139835  0.32700108485638035  0.7276255425523027  1.0000
  H   H1058     1.0  0.25204295422291906  0.3199315031219209  0.6968250187918452  1.0000
  H   H1059     1.0  0.26222076573559877  0.2774008178219491  0.7346646236129762  1.0000
  H   H1060     1.0  0.29637627883943735  0.27203597795663925  0.7189677981110013  1.0000
  C   C1491     1.0  0.26567059188328196  0.3282389407895248  0.36576817786598786  1.0000
  C   C1492     1.0  0.2686409217479831  0.2967599845050983  0.35313074095222075  1.0000
  H   H1061     1.0  0.24566192763278885  0.3281116649843439  0.3787480979300296  1.0000
  H   H1062     1.0  0.25939261576226863  0.3445215770280765  0.35063386658848633  1.0000
  H   H1063     1.0  0.2931430633055934  0.2929629259164824  0.34815421204795005  1.0000
  H   H1064     1.0  0.2577951142105759  0.2992224354229055  0.3346098644457461  1.0000
  C   C1493     1.0  0.38705658323948544  0.3227428306550304  0.5330855466278372  1.0000
  C   C1494     1.0  0.39205728984884747  0.35262168090760326  0.5471656220628731  1.0000
  H   H1065     1.0  0.3668984376082767  0.3110685482551867  0.5407617611468432  1.0000
  H   H1066     1.0  0.4063328979408754  0.3072913958816377  0.5375914003646914  1.0000
  H   H1067     1.0  0.3745353184782736  0.3703235659000491  0.5415309132496947  1.0000
  H   H1068     1.0  0.41432234429453507  0.36256082775248666  0.5418293901851295  1.0000
  C   C1495     1.0  0.2762287793595668  0.7849807447253109  0.6949423181221787  1.0000
  C   C1496     1.0  0.2803662868846358  0.8137088038100116  0.6786542786904  1.0000
  H   H1069     1.0  0.28528745685616497  0.7890021230574099  0.7145633499996474  1.0000
  H   H1070     1.0  0.251428323777016  0.7798585306057896  0.6981681650013023  1.0000
  H   H1071     1.0  0.29317667906586825  0.8079563471021202  0.6610517927544942  1.0000
  H   H1072     1.0  0.29502496147763785  0.830440102400411  0.6882897264266196  1.0000
  C   C1497     1.0  0.3670576355364184  0.5242450484361515  0.6300561109977908  1.0000
  C   C1498     1.0  0.3471332629967333  0.4969947445976881  0.6209544777807143  1.0000
  H   H1073     1.0  0.3603639009604524  0.5435923230949996  0.6173918876923821  1.0000
  H   H1074     1.0  0.3919116739365845  0.5211633877684516  0.6255866102210217  1.0000
  H   H1075     1.0  0.3501396839087656  0.4965110162145655  0.6000457857907603  1.0000
  H   H1076     1.0  0.32227125403601253  0.5025907234620991  0.6225712278476534  1.0000
  C   C1499     1.0  0.299458921401707  0.7901002683995593  0.3908249339330118  1.0000
  C   C1500     1.0  0.32793331645213686  0.7906241776327938  0.40847333939744596  1.0000
  H   H1077     1.0  0.2873400939263336  0.7680860590221007  0.3902777262180478  1.0000
  H   H1078     1.0  0.3058860647627528  0.7933969711672454  0.37027977154390795  1.0000
  H   H1079     1.0  0.32192955518741767  0.8018120565214863  0.4269215099837505  1.0000
  H   H1080     1.0  0.3472540528771152  0.8043557347896292  0.40038576243537277  1.0000
  C   C1501     1.0  0.36844602630815465  0.5186940620985852  0.46455065029912634  1.0000
  C   C1502     1.0  0.3490547597867692  0.49075347373677153  0.47225556452346246  1.0000
  H   H1081     1.0  0.3936016543968919  0.5154607262902355  0.4688651726671119  1.0000
  H   H1082     1.0  0.3614769641737681  0.5371970950537467  0.478272936074378  1.0000
  H   H1083     1.0  0.32454661765456333  0.4969895717923428  0.4697931298061243  1.0000
  H   H1084     1.0  0.35323696784634595  0.4864946622734048  0.49284090650002865  1.0000
  C   C1503     1.0  0.32138044266864374  0.6178193170121712  0.5357928854973272  1.0000
  C   C1504     1.0  0.29546678329635073  0.6331912503637215  0.5512084538870654  1.0000
  H   H1085     1.0  0.31313204750863355  0.5950963134283915  0.5309923814524156  1.0000
  H   H1086     1.0  0.34201878206054903  0.6122979025156375  0.5482542975517352  1.0000
  H   H1087     1.0  0.2775823917405364  0.6162382620759722  0.5556990011144101  1.0000
  H   H1088     1.0  0.28296824175474533  0.6512849834875204  0.5394645344659145  1.0000
  C   C1505     1.0  0.7578245367252463  0.8056006971114986  0.641312135428327  1.0000
  C   C1506     1.0  0.7566718251751808  0.832706410851611  0.6605619844501908  1.0000
  H   H1089     1.0  0.7604104668059553  0.814480395065311  0.621656663904462  1.0000
  H   H1090     1.0  0.7788886122837696  0.7924679903983959  0.6460590666899554  1.0000
  H   H1091     1.0  0.7620305155763619  0.8231026964259616  0.6797620873161487  1.0000
  H   H1092     1.0  0.733532775665921  0.8432545606300836  0.6613234832982876  1.0000
  C   C1507     1.0  0.49637845958014815  0.6962811938203202  0.6098132521714992  1.0000
  C   C1508     1.0  0.465565669704397  0.7099641543961609  0.6000075195169865  1.0000
  H   H1093     1.0  0.5140576090120923  0.6995059424522935  0.5951802290804332  1.0000
  H   H1094     1.0  0.4944620192785591  0.6711887856455127  0.6105230915500015  1.0000
  H   H1095     1.0  0.46222594333391903  0.7027562864961211  0.5800956639588376  1.0000
  H   H1096     1.0  0.46855308535819135  0.734671746702679  0.598253010864462  1.0000
  C   C1509     1.0  0.7509601127407017  0.8145730404275733  0.42506176907834836  1.0000
  C   C1510     1.0  0.7757625523935828  0.8120659283472579  0.44684867205140905  1.0000
  H   H1097     1.0  0.7610863781053623  0.8107134730499456  0.40635912777144856  1.0000
  H   H1098     1.0  0.7425491980953032  0.8385124786759863  0.424583440656177  1.0000
  H   H1099     1.0  0.7642698055446726  0.809652320282939  0.4657866509420171  1.0000
  H   H1100     1.0  0.7888528056478719  0.7906390172536457  0.4437318840525405  1.0000
  C   C1511     1.0  0.5256983800472742  0.6574235735961941  0.46995576146966256  1.0000
  C   C1512     1.0  0.5023990553893172  0.6737915829469034  0.48639495268284755  1.0000
  H   H1101     1.0  0.5202455057469422  0.6333125500805249  0.46889961231350824  1.0000
  H   H1102     1.0  0.5484833580369259  0.6567929273887825  0.4802015562725729  1.0000
  H   H1103     1.0  0.511558277781296  0.6970968813126961  0.4899001433605192  1.0000
  H   H1104     1.0  0.5026405518722196  0.6639377695862408  0.505744294016523  1.0000
  C   C1513     1.0  0.5710049474211859  0.7710512926049224  0.532157589488825  1.0000
  C   C1514     1.0  0.5647870206154086  0.7410093012266291  0.5467944392072682  1.0000
  H   H1105     1.0  0.5821273323704107  0.7888315811955516  0.5445099426629778  1.0000
  H   H1106     1.0  0.5484834282873889  0.7809474133993402  0.5260235058028995  1.0000
  H   H1107     1.0  0.5655697697409184  0.7214148153814389  0.5344114730140963  1.0000
  H   H1108     1.0  0.5411801776626204  0.7412841369293478  0.5540726844790275  1.0000
  C   C1515     1.0  0.8089914222808734  0.3417212052339308  0.632432446599138  1.0000
  C   C1516     1.0  0.8034829968584075  0.31310749754398925  0.6166667418043703  1.0000
  H   H1109     1.0  0.8313004261777824  0.35273129063695285  0.6276032428488961  1.0000
  H   H1110     1.0  0.8115253893141192  0.3356453137087483  0.6523825684310607  1.0000
  H   H1111     1.0  0.796138001004691  0.3192970905723961  0.5970380566721468  1.0000
  H   H1112     1.0  0.7830931315661162  0.3006523713875371  0.6243946157929706  1.0000
  C   C1517     1.0  0.6495722120555897  0.5731032396557371  0.6167164879602761  1.0000
  C   C1518     1.0  0.6609064840656358  0.5996610225303939  0.6008665973632062  1.0000
  H   H1113     1.0  0.6250330270840135  0.5777460188739437  0.6202178520105704  1.0000
  H   H1114     1.0  0.6486485949553964  0.5530489128777609  0.603520363449413  1.0000
  H   H1115     1.0  0.6481803760838848  0.6007527608035189  0.5825370522256001  1.0000
  H   H1116     1.0  0.685406362489492  0.5943488880440733  0.5958824152041808  1.0000
  C   C1519     1.0  0.5829945315949857  0.3880433574483624  0.646791865832722  1.0000
  C   C1520     1.0  0.5828930005271776  0.40381794320316133  0.6206598274726568  1.0000
  H   H1117     1.0  0.5976733075765666  0.40202110459836343  0.6601735817713875  1.0000
  H   H1118     1.0  0.5961609679214467  0.3670641987434038  0.6443983104081764  1.0000
  H   H1119     1.0  0.565569817530874  0.4216747910970042  0.619661077727163  1.0000
  H   H1120     1.0  0.5742399614230855  0.38654772646474933  0.6073068112393213  1.0000
  C   C1521     1.0  0.8221812413399467  0.30302634834525594  0.4547697907225665  1.0000
  C   C1522     1.0  0.8271449176027041  0.3374897410606303  0.4562009493617032  1.0000
  H   H1121     1.0  0.8125780100663107  0.2954730831016018  0.47302280331262525  1.0000
  H   H1122     1.0  0.8044596415337112  0.2967947061029669  0.4404658575859545  1.0000
  H   H1123     1.0  0.8428901224608575  0.3443222271347766  0.44079877416778573  1.0000
  H   H1124     1.0  0.8405218756544703  0.34372805879360185  0.4734169459324945  1.0000
  C   C1523     1.0  0.662454795006916  0.604473715878049  0.4219028881783287  1.0000
  C   C1524     1.0  0.667473870427255  0.6077258530718439  0.45091829026724284  1.0000
  H   H1125     1.0  0.6724926319236203  0.6240178431105512  0.411879037763306  1.0000
  H   H1126     1.0  0.636692382966705  0.6077589247238354  0.41809539393784484  1.0000
  H   H1127     1.0  0.6912135246149513  0.6011769937702185  0.4557455807037961  1.0000
  H   H1128     1.0  0.6523115990224597  0.5907489091694282  0.45977693264585623  1.0000
  C   C1525     1.0  0.5739122284514881  0.35719388511127026  0.44848072862785765  1.0000
  C   C1526     1.0  0.6032966842549654  0.33803663117521227  0.44516112937798846  1.0000
  H   H1129     1.0  0.5803329876690125  0.3817131833100758  0.45174101515337756  1.0000
  H   H1130     1.0  0.5623720561577836  0.3511749209270683  0.4663395985980472  1.0000
  H   H1131     1.0  0.6020158004812604  0.32372366611712383  0.42725059993820447  1.0000
  H   H1132     1.0  0.6049626851572794  0.32173871215585154  0.4608943078400485  1.0000
  C   C1527     1.0  0.7212042887662101  0.5221936102043375  0.5157107450208852  1.0000
  C   C1528     1.0  0.6991461462950678  0.5201808450653501  0.5386398962660911  1.0000
  H   H1133     1.0  0.714442787325776  0.5418084795937379  0.5041543303412254  1.0000
  H   H1134     1.0  0.745004572199549  0.5260498052806348  0.5231114423687203  1.0000
  H   H1135     1.0  0.6966506554760257  0.5434207581107435  0.5459028350283408  1.0000
  H   H1136     1.0  0.675985397382075  0.5137730263567187  0.5318380661028145  1.0000
  C   C1529     1.0  0.315088571211692  0.29469074071131296  0.8649765923219614  1.0000
  C   C1530     1.0  0.31476912415863245  0.26206751226377667  0.876467954336206  1.0000
  H   H1137     1.0  0.2910940124375896  0.3023312270560811  0.8622883865893585  1.0000
  H   H1138     1.0  0.3259930067950003  0.29421927734625414  0.8460405267450422  1.0000
  H   H1139     1.0  0.3330771552407383  0.25938878930019327  0.8919294422544727  1.0000
  H   H1140     1.0  0.3219409064915606  0.24666868074861764  0.8610849122791754  1.0000
  C   C1531     1.0  0.2523454881658402  0.5520065444381548  0.7976202972254807  1.0000
  C   C1532     1.0  0.2610982793882811  0.5569230090994781  0.8263525288884693  1.0000
  H   H1141     1.0  0.22968797278966704  0.5638957790691825  0.7931144434886265  1.0000
  H   H1142     1.0  0.24603323230029814  0.5276127105020667  0.7947331068692544  1.0000
  H   H1143     1.0  0.24203759338978853  0.5474495452196129  0.8371780577390513  1.0000
  H   H1144     1.0  0.26013635792304163  0.5813425327015863  0.8311932125208433  1.0000
  C   C1533     1.0  0.46912403885850407  0.48550511556302167  0.7968836714553368  1.0000
  C   C1534     1.0  0.48706758245483245  0.4569384880953117  0.806065663847338  1.0000
  H   H1145     1.0  0.4843137237166265  0.5049826458831129  0.7947311935555658  1.0000
  H   H1146     1.0  0.4592041276629476  0.48173694779604403  0.7772128934219622  1.0000
  H   H1147     1.0  0.4777879706709766  0.44776094205235645  0.8239857598555654  1.0000
  H   H1148     1.0  0.510215165207306  0.4641297409352368  0.8128541008147938  1.0000
  C   C1535     1.0  0.2901807306982589  0.26702148678144455  0.21801635488463522  1.0000
  C   C1536     1.0  0.2964411420687382  0.2362720884021462  0.20435720846111013  1.0000
  H   H1149     1.0  0.29819179851812294  0.2662497863994272  0.2380277027545958  1.0000
  H   H1150     1.0  0.2648982046404881  0.26945977930805765  0.22006551384521728  1.0000
  H   H1151     1.0  0.30513031875523305  0.21987177729121077  0.21899597149324215  1.0000
  H   H1152     1.0  0.31683973261278303  0.23841079139549728  0.1922306263022221  1.0000
  C   C1537     1.0  0.3138404782600339  0.3871098999574952  0.051972296382605844  1.0000
  C   C1538     1.0  0.346440334503884  0.3874535882009384  0.04073827505948953  1.0000
  H   H1153     1.0  0.3007147767903522  0.4080862417639772  0.047651077416709875  1.0000
  H   H1154     1.0  0.2999443972362952  0.3683217958216966  0.043867308265965625  1.0000
  H   H1155     1.0  0.358959497858872  0.4079757072742497  0.047435638295363895  1.0000
  H   H1156     1.0  0.3599340168690231  0.3673341212799141  0.04755445507543127  1.0000
  C   C1539     1.0  0.2539735765293337  0.5576590837468158  0.29889212450536706  1.0000
  C   C1540     1.0  0.25714382390292906  0.5575971190345974  0.26953615257986696  1.0000
  H   H1157     1.0  0.2448667761394538  0.535317998525561  0.3046378055124893  1.0000
  H   H1158     1.0  0.23480727896784787  0.5735688143402858  0.30459379929764957  1.0000
  H   H1159     1.0  0.25934081165431905  0.5816004304124572  0.2632604836809789  1.0000
  H   H1160     1.0  0.2355694742548697  0.5502958340234718  0.25993131786266627  1.0000
  C   C1541     1.0  0.47712032687216266  0.44663326020873073  0.28455566503604734  1.0000
  C   C1542     1.0  0.4570917128441834  0.4731120039923969  0.2955973983334508  1.0000
  H   H1161     1.0  0.4659736775732561  0.4380619923687522  0.2664920705011685  1.0000
  H   H1162     1.0  0.5000556115491405  0.4554577893285197  0.278901823085982  1.0000
  H   H1163     1.0  0.4718709931977814  0.49266877132561143  0.2984960685718092  1.0000
  H   H1164     1.0  0.4490444466461903  0.46752572078925214  0.3150691917432021  1.0000
  C   C1543     1.0  0.7786066126070519  0.2846612758820206  0.9565267390118691  1.0000
  C   C1544     1.0  0.7819272914859144  0.2592465767866354  0.9364044189479648  1.0000
  H   H1165     1.0  0.7983149706308481  0.29993433823717897  0.9571370860785599  1.0000
  H   H1166     1.0  0.7790245250266612  0.27505958132113467  0.975964092775224  1.0000
  H   H1167     1.0  0.7835823375873198  0.2693395241083817  0.9172138826504502  1.0000
  H   H1168     1.0  0.7605539208835879  0.24497627172336195  0.935740499097991  1.0000
  C   C1545     1.0  0.614080689817598  0.4436963925268946  0.7801421766793395  1.0000
  C   C1546     1.0  0.6325694704576065  0.4709852231065751  0.791907142551066  1.0000
  H   H1169     1.0  0.6278141248977116  0.43315429142521106  0.7651953701433293  1.0000
  H   H1170     1.0  0.5936076783466132  0.45150114752263587  0.7688191862696994  1.0000
  H   H1171     1.0  0.6156932086019243  0.48648551397177575  0.8011197479620863  1.0000
  H   H1172     1.0  0.6482786745780421  0.4623990476554575  0.8077359866975603  1.0000
  C   C1547     1.0  0.5228564958860844  0.25341178574242645  0.8029986220043753  1.0000
  C   C1548     1.0  0.5282325303621223  0.2515537071439454  0.7741401116379335  1.0000
  H   H1173     1.0  0.5285789401542815  0.23134547566556588  0.8117328989932242  1.0000
  H   H1174     1.0  0.4980470739070432  0.2556042133739285  0.806492332799915  1.0000
  H   H1175     1.0  0.5525263049887801  0.24606144603077573  0.7706081345686202  1.0000
  H   H1176     1.0  0.5146344379425315  0.23152945273808773  0.7661520269876718  1.0000
  C   C1549     1.0  0.526789721026341  0.39581650133510554  0.9522810959366762  1.0000
  C   C1550     1.0  0.5044556310750261  0.3756684383240748  0.967176243003092  1.0000
  H   H1177     1.0  0.5484135398050642  0.39967355316504805  0.9643043591563754  1.0000
  H   H1178     1.0  0.5175095843155411  0.41860375424787877  0.9502644633088019  1.0000
  H   H1179     1.0  0.5059848889118654  0.38434817495578805  0.9876066065708748  1.0000
  H   H1180     1.0  0.5132967167067859  0.3517717662720215  0.9678899090089718  1.0000
  C   C1551     1.0  0.7466245390588637  0.21233201241267657  0.1504442380040707  1.0000
  C   C1552     1.0  0.7438963178427537  0.23822662355769217  0.13149707520775694  1.0000
  H   H1181     1.0  0.7246540886560059  0.19976491820626605  0.15002120434750235  1.0000
  H   H1182     1.0  0.7490980390286773  0.2193174807781231  0.1706999160320764  1.0000
  H   H1183     1.0  0.7426853426789328  0.22826175717063538  0.11173464944869431  1.0000
  H   H1184     1.0  0.7652824296837843  0.2521485795979437  0.1319417293090074  1.0000
  C   C1553     1.0  0.4934146095534048  0.3624902837712668  0.122579502767532  1.0000
  C   C1554     1.0  0.46430425890643395  0.3464677057587983  0.1129327664805491  1.0000
  H   H1185     1.0  0.5111672213183631  0.35966912189607336  0.10854247689049158  1.0000
  H   H1186     1.0  0.49041815624458474  0.38702193004146374  0.12223625429178187  1.0000
  H   H1187     1.0  0.4706807335932169  0.32193040331703704  0.11074967556175905  1.0000
  H   H1188     1.0  0.4589057637071232  0.3522281575379656  0.09317091471559308  1.0000
  C   C1555     1.0  0.5738681342467511  0.357853278660412  0.02627084959182935  1.0000
  C   C1556     1.0  0.5644769214927621  0.32687947032553605  0.03759001337409207  1.0000
  H   H1189     1.0  0.5818445243664053  0.3737832522048743  0.04165303033405002  1.0000
  H   H1190     1.0  0.5528377885423222  0.3691645266027234  0.01824641198148269  1.0000
  H   H1191     1.0  0.5676050511140317  0.3083552249223274  0.02403609920344474  1.0000
  H   H1192     1.0  0.5387874347782179  0.327665863819058  0.04123707593812981  1.0000
  C   C1557     1.0  0.5977969456579395  0.42766551631424987  0.2915258668039283  1.0000
  C   C1558     1.0  0.6259971389316353  0.44311103031687094  0.2804726536243927  1.0000
  H   H1193     1.0  0.5798089762765722  0.44455060377742545  0.29528552820219506  1.0000
  H   H1194     1.0  0.6042970540210537  0.41815766436200574  0.31054803149683846  1.0000
  H   H1195     1.0  0.6412672643269532  0.42702090546287785  0.2698078431236603  1.0000
  H   H1196     1.0  0.6180012954013376  0.45923186995616866  0.2657516181036472  1.0000
  C   C1559     1.0  0.5024241371117518  0.23781425329740133  0.30835920063698236  1.0000
  C   C1560     1.0  0.4939105264800281  0.23840936177239538  0.27904340829894475  1.0000
  H   H1197     1.0  0.5275213695085254  0.2322135761717323  0.3109785270767927  1.0000
  H   H1198     1.0  0.4901237162202053  0.2181112093931546  0.316900232943274  1.0000
  H   H1199     1.0  0.4679638541229477  0.23918546807012225  0.27657332032685183  1.0000
  H   H1200     1.0  0.500339199195627  0.21645902346127507  0.27075684671324823  1.0000
  C   C1561     1.0  0.773312492428551  0.7685587387317909  0.928314928672203  1.0000
  C   C1562     1.0  0.7848584556489531  0.7881315901996252  0.9509245565313983  1.0000
  H   H1201     1.0  0.7933872809029636  0.7570920725196828  0.919946094597893  1.0000
  H   H1202     1.0  0.7652111617498222  0.7840090157657948  0.9132992428433999  1.0000
  H   H1203     1.0  0.7867661786732517  0.7750582818058347  0.9685002560756624  1.0000
  H   H1204     1.0  0.766838785105473  0.8053399454634722  0.953553449539652  1.0000
  C   C1563     1.0  0.597166823387715  0.6186701723711743  0.7676673714291107  1.0000
  C   C1564     1.0  0.5678009530723493  0.6334785059070591  0.7788602565079203  1.0000
  H   H1205     1.0  0.5902778259434768  0.5973950298987719  0.7587034967976196  1.0000
  H   H1206     1.0  0.6061523799859939  0.6317869291750525  0.751737121657116  1.0000
  H   H1207     1.0  0.5706174683143654  0.638085450449176  0.7994322052886658  1.0000
  H   H1208     1.0  0.5492711773526904  0.6173776468795148  0.777840460311851  1.0000
  C   C1565     1.0  0.8038169575739701  0.6105104410592859  0.783046586858764  1.0000
  C   C1566     1.0  0.811593655509613  0.5830587154958471  0.7651819769475083  1.0000
  H   H1209     1.0  0.8004459286021978  0.6299538880737496  0.7699748277376653  1.0000
  H   H1210     1.0  0.8248059745756989  0.6170748205612584  0.7936080784203075  1.0000
  H   H1211     1.0  0.820699123363272  0.5651120484771683  0.7782403428727862  1.0000
  H   H1212     1.0  0.830222179542908  0.5885804573242317  0.751695028755965  1.0000
  C   C1567     1.0  0.6901581470054056  0.49086282539115833  0.9093635565857741  1.0000
  C   C1568     1.0  0.6865073388480606  0.49280575184781356  0.938878333547435  1.0000
  H   H1213     1.0  0.6701172206828377  0.477537598609791  0.9010731683727002  1.0000
  H   H1214     1.0  0.7112378686638915  0.47637494514355155  0.9054871830524974  1.0000
  H   H1215     1.0  0.6668430010172708  0.5076569093442205  0.9441954322882917  1.0000
  H   H1216     1.0  0.7072953703776299  0.5030771698405208  0.9478326416104828  1.0000
  C   C1569     1.0  0.7962617990944559  0.7502490934341886  0.12947776394071836  1.0000
  C   C1570     1.0  0.8251155136959397  0.7472891180144116  0.147281147813936  1.0000
  H   H1217     1.0  0.8045559727299336  0.7525012749699104  0.10966654868259426  1.0000
  H   H1218     1.0  0.7840377124648641  0.7714400637246968  0.133608799525959  1.0000
  H   H1219     1.0  0.817496050933657  0.7496908237709324  0.16711053955210262  1.0000
  H   H1220     1.0  0.8349783568808697  0.7241142623691393  0.14553180510837094  1.0000
  C   C1571     1.0  0.6860006233699939  0.44318130917934023  0.16397538374182272  1.0000
  C   C1572     1.0  0.6759545969641938  0.44445516675909924  0.1351178300322252  1.0000
  H   H1221     1.0  0.706222804557179  0.42763705250021217  0.16609036069329558  1.0000
  H   H1222     1.0  0.6679104699986049  0.43178872069563173  0.17494747242095798  1.0000
  H   H1223     1.0  0.6959259395800357  0.4506473157531799  0.12350325061642932  1.0000
  H   H1224     1.0  0.6594848824046395  0.4626948263137622  0.13200238135293874  1.0000
  C   C1573     1.0  0.7300450274430794  0.5691227715481572  0.037457133414762936  1.0000
  C   C1574     1.0  0.7046358584090756  0.5712782298515485  0.016271872254759456  1.0000
  H   H1225     1.0  0.7517363199652037  0.5760400255477454  0.028698844662771172  1.0000
  H   H1226     1.0  0.7346073167120496  0.5454806672810945  0.04253640726411607  1.0000
  H   H1227     1.0  0.6814856422663581  0.5677928349851095  0.024229343886001953  1.0000
  H   H1228     1.0  0.7080655753296102  0.5499082375457428  0.005742907025923616  1.0000
  C   C1575     1.0  0.6442963468921927  0.6015736923891252  0.29592840160159334  1.0000
  C   C1576     1.0  0.6107068240063463  0.6087475502198157  0.28817182790766277  1.0000
  H   H1229     1.0  0.6442365642129003  0.5858801578975333  0.3118969176473617  1.0000
  H   H1230     1.0  0.6539603393519801  0.6221405076276929  0.3044177744382905  1.0000
  H   H1231     1.0  0.597383996264615  0.587652651150017  0.2870793257914234  1.0000
  H   H1232     1.0  0.6090025665221382  0.6183344677396891  0.268860752847761  1.0000
  C   C1577     1.0  0.8298229234246899  0.5337531015598229  0.28228647500126647  1.0000
  C   C1578     1.0  0.8174598990323916  0.5447824642172432  0.30844912638035066  1.0000
  H   H1233     1.0  0.835719977088341  0.5097598495345519  0.28362579458334625  1.0000
  H   H1234     1.0  0.8507227900665922  0.5462544926162811  0.27759885646398724  1.0000
  H   H1235     1.0  0.8360719457755582  0.5425936761339426  0.32293865094476515  1.0000
  H   H1236     1.0  0.8153831774255377  0.56932591234109  0.30816212932704784  1.0000
  C   C1579     1.0  0.26976677812494304  0.7661425200485048  0.9275285567461533  1.0000
  C   C1580     1.0  0.26494142202412935  0.7877302390396372  0.9043143217613332  1.0000
  H   H1237     1.0  0.2514239058140618  0.7483629478407896  0.9266981786052637  1.0000
  H   H1238     1.0  0.26752108005961467  0.7778003415146189  0.9463804365207704  1.0000
  H   H1239     1.0  0.25434294976561855  0.7751548637952954  0.8880760284854603  1.0000
  H   H1240     1.0  0.28777404458672834  0.7956082350639273  0.8984021824632954  1.0000
  C   C1581     1.0  0.505147515044654  0.8358809264221707  0.794838339122132  1.0000
  C   C1582     1.0  0.494856159433136  0.8367139130401757  0.7665978290771356  1.0000
  H   H1241     1.0  0.5302350568872058  0.8409733681240027  0.7963613368183258  1.0000
  H   H1242     1.0  0.4964091426784266  0.8551016261431262  0.8061421963948854  1.0000
  H   H1243     1.0  0.498986165558278  0.8587824531515725  0.7580988896719951  1.0000
  H   H1244     1.0  0.4692999876614848  0.8352469008204452  0.7650537849303665  1.0000
  C   C1583     1.0  0.4781510021758241  0.6217007791916915  0.7908777797865534  1.0000
  C   C1584     1.0  0.45316699703078805  0.6013444921758839  0.8028608634187899  1.0000
  H   H1245     1.0  0.47286576312171613  0.6254069488508704  0.770548821844271  1.0000
  H   H1246     1.0  0.5009722830514642  0.6101014019861665  0.7911265105660824  1.0000
  H   H1247     1.0  0.4645883966610628  0.5796130234202816  0.8073284508818704  1.0000
  H   H1248     1.0  0.4449181766283904  0.6102692641122865  0.8209512443453104  1.0000
  C   C1585     1.0  0.5459959939074803  0.7379966181262166  0.9587308763812348  1.0000
  C   C1586     1.0  0.5569461218322349  0.7116796458431273  0.9757344951325819  1.0000
  H   H1249     1.0  0.5274491022034351  0.7504230935446783  0.9686514078570685  1.0000
  H   H1250     1.0  0.5647787915500246  0.755308497217733  0.9583577802119411  1.0000
  H   H1251     1.0  0.5387874703254294  0.693977914803024  0.9763333623171404  1.0000
  H   H1252     1.0  0.5592940338991601  0.7212521537556006  0.9951622823274935  1.0000
  C   C1587     1.0  0.41063536668993117  0.5590240438748145  0.97179306893389  1.0000
  C   C1588     1.0  0.3941116238086064  0.5861829609106339  0.9842583076156753  1.0000
  H   H1253     1.0  0.4121401041510632  0.5403533254850175  0.985987943190247  1.0000
  H   H1254     1.0  0.43408362100994125  0.5671977354888104  0.9689594513609469  1.0000
  H   H1255     1.0  0.40489006042849074  0.5910741225491618  0.002836583532810577  1.0000
  H   H1256     1.0  0.3708914806149672  0.5786138299115353  0.9894759140447204  1.0000
  C   C1589     1.0  0.2952295499534181  0.7556879970706197  0.12594444755182302  1.0000
  C   C1590     1.0  0.31237360092095623  0.7864284137690369  0.13056873540600678  1.0000
  H   H1257     1.0  0.28087068049497954  0.7573008016539325  0.10843762730035163  1.0000
  H   H1258     1.0  0.27972146920948826  0.751888038230418  0.142438933530611  1.0000
  H   H1259     1.0  0.3334914430699122  0.7868065713293944  0.11912750221040581  1.0000
  H   H1260     1.0  0.3209910322595896  0.787289251116292  0.1508188648243153  1.0000
  C   C1591     1.0  0.5613153831702825  0.6884793143403268  0.12379541361669158  1.0000
  C   C1592     1.0  0.5897579623418354  0.7091281744035397  0.12117398253182371  1.0000
  H   H1261     1.0  0.5672629114265271  0.6658582557708362  0.1160734709005262  1.0000
  H   H1262     1.0  0.5430363506811903  0.6968004608600616  0.11035208897725024  1.0000
  H   H1263     1.0  0.588177666000302  0.7209772109746403  0.10263665152762637  1.0000
  H   H1264     1.0  0.5895233682251059  0.7271338902802035  0.1360651116394933  1.0000
  C   C1593     1.0  0.37096058034076185  0.5172042277028454  0.1137331055965262  1.0000
  C   C1594     1.0  0.3528789958032341  0.5422930561528505  0.09983498629328433  1.0000
  H   H1265     1.0  0.3953858319831106  0.517742294043939  0.10830675664404554  1.0000
  H   H1266     1.0  0.36309889142414403  0.4953234363531825  0.10571536458409003  1.0000
  H   H1267     1.0  0.32706338672406504  0.5404097835983359  0.10233071266880556  1.0000
  H   H1268     1.0  0.35498047023753654  0.5369945047232849  0.07889051533735186  1.0000
  C   C1595     1.0  0.4808058279952708  0.7109243752334311  0.03849395810266155  1.0000
  C   C1596     1.0  0.47051027401476386  0.7409661622488912  0.02690415642278432  1.0000
  H   H1269     1.0  0.5047545752350231  0.7139737967434959  0.04556059088045221  1.0000
  H   H1270     1.0  0.4832211097244423  0.6934416275617715  0.023198067807800538  1.0000
  H   H1271     1.0  0.49118003947777444  0.7522542251988761  0.019880381871620223  1.0000
  H   H1272     1.0  0.46159005142292164  0.7567869935644446  0.04143644322449083  1.0000
  C   C1597     1.0  0.46023674137805487  0.7707615377596208  0.2866564834662239  1.0000
  C   C1598     1.0  0.45527987255361746  0.7591894916515369  0.31405513548819886  1.0000
  H   H1273     1.0  0.43870377792077997  0.783029222263663  0.2803195885292979  1.0000
  H   H1274     1.0  0.47978230936283967  0.7868001459617553  0.2870142731260081  1.0000
  H   H1275     1.0  0.4337491296072997  0.7449374479777047  0.3147381884750595  1.0000
  H   H1276     1.0  0.4505453057370625  0.7798980425483432  0.32589280728009545  1.0000
  C   C1599     1.0  0.49179786536287584  0.590237725128749  0.2957294169779701  1.0000
  C   C1600     1.0  0.4699232965625496  0.5633874874044309  0.298241597851214  1.0000
  H   H1277     1.0  0.5154765088962363  0.5808083767003657  0.2976389040392781  1.0000
  H   H1278     1.0  0.49070995023022573  0.6061662577942487  0.3118854377652296  1.0000
  H   H1279     1.0  0.4841826628503858  0.544816094862091  0.30574944076561555  1.0000
  H   H1280     1.0  0.4617208187927232  0.5553482523957814  0.27962888228768246  1.0000
