data_image0
_chemical_formula_sum              "C1600 H1280"
_cell_length_a       42.743956444339105
_cell_length_b       41.9312583717527
_cell_length_c       50.324515908605626
_cell_angle_alpha    90.31149999959919
_cell_angle_beta     89.38519999948907
_cell_angle_gamma    89.89159999980869

_space_group_name_H-M_alt    "P 1"
_space_group_IT_number       1

loop_
  _space_group_symop_operation_xyz
  'x, y, z'

loop_
  _atom_site_type_symbol
  _atom_site_label
  _atom_site_symmetry_multiplicity
  _atom_site_fract_x
  _atom_site_fract_y
  _atom_site_fract_z
  _atom_site_occupancy
  C   C1        1.0  0.593170760621692  0.8349771909416532  0.28833166365870466  1.0000
  C   C2        1.0  0.6041650638218492  0.8218805094033103  0.26481060741769435  1.0000
  C   C3        1.0  0.5900797241160324  0.7961393896170509  0.25222735901299026  1.0000
  C   C4        1.0  0.5646399576313199  0.7817866894447535  0.2645145076052653  1.0000
  C   C5        1.0  0.5517765849878707  0.796951213142213  0.2866047459607123  1.0000
  C   C6        1.0  0.5655691544959395  0.8224386589456981  0.2983255291399518  1.0000
  H   H1        1.0  0.6239749046061681  0.8323634613138061  0.2548425761482699  1.0000
  H   H2        1.0  0.6002375104762008  0.7886490508634427  0.23409770405466504  1.0000
  H   H3        1.0  0.5296982758317623  0.7886500851945998  0.294702777743588  1.0000
  H   H4        1.0  0.5549345810729455  0.8328307605560118  0.31636178348630273  1.0000
  C   C7        1.0  0.5482305492529072  0.7231138906686821  0.29721465803157693  1.0000
  C   C8        1.0  0.5350947743053577  0.7262296327541127  0.27189514319829605  1.0000
  C   C9        1.0  0.5098839817644456  0.7068477463712187  0.2656849961255386  1.0000
  C   C10       1.0  0.49554598423305807  0.6894456885176891  0.28502488454540276  1.0000
  C   C11       1.0  0.5065692581251326  0.6899585970020944  0.31017548337830464  1.0000
  C   C12       1.0  0.5342233050132092  0.7046581994563187  0.3158987549205579  1.0000
  C   C13       1.0  0.5501518726861304  0.7498092780108236  0.25194914442413074  1.0000
  C   C14       1.0  0.5756257147841521  0.7267483534610616  0.23894261239494752  1.0000
  C   C15       1.0  0.5686337684829738  0.7079026602144022  0.21701334105162637  1.0000
  C   C16       1.0  0.5906056555906666  0.6871613596573912  0.20679094215810181  1.0000
  C   C17       1.0  0.619080736689787  0.6839349614466519  0.21849185286670847  1.0000
  C   C18       1.0  0.6257304932647887  0.7011834852235612  0.24089011451696427  1.0000
  C   C19       1.0  0.6046166782604285  0.7227482163186861  0.2508482095510723  1.0000
  C   C20       1.0  0.4953009512475628  0.7749334714849366  0.24352719136993997  1.0000
  C   C21       1.0  0.4723836703739728  0.7883181775803322  0.22836648352415867  1.0000
  C   C22       1.0  0.4776025955813219  0.7928829737149148  0.20181090101751614  1.0000
  C   C23       1.0  0.5078924675900993  0.7869455344059477  0.19211075065222216  1.0000
  C   C24       1.0  0.5311126399621202  0.7748124435947812  0.20829727543206986  1.0000
  C   C25       1.0  0.5242212271438225  0.766089726558017  0.23359095605352806  1.0000
  C   C26       1.0  0.4490662634260645  0.8008787157078975  0.18240563216926997  1.0000
  C   C27       1.0  0.4274908095009233  0.6999015992664762  0.1704255132482721  1.0000
  C   C28       1.0  0.4112996575235706  0.7177263860920859  0.18868493543982964  1.0000
  C   C29       1.0  0.41830903814994597  0.7491544972277833  0.1927556123242573  1.0000
  C   C30       1.0  0.4396933119470741  0.7651286850696032  0.1764297815252735  1.0000
  C   C31       1.0  0.45442834937329407  0.7466847940544183  0.15722442973159353  1.0000
  C   C32       1.0  0.4487796782086234  0.715007094989865  0.15437173657225167  1.0000
  C   C33       1.0  0.45871950451865995  0.8212338378111667  0.15660401119843678  1.0000
  C   C34       1.0  0.48257472266251805  0.843371128609395  0.15748813741689113  1.0000
  C   C35       1.0  0.49137968074711336  0.8599211199451757  0.1351326015784959  1.0000
  C   C36       1.0  0.47356397813331796  0.858092535785328  0.11264809340569368  1.0000
  C   C37       1.0  0.448838315369603  0.8370358762871671  0.11217234645874388  1.0000
  C   C38       1.0  0.4417257142855244  0.8186328757885187  0.133803729467279  1.0000
  C   C39       1.0  0.3915011755054085  0.8214453247214435  0.18634654182046526  1.0000
  C   C40       1.0  0.36901574608848764  0.843745154503187  0.19384144411963478  1.0000
  C   C41       1.0  0.37755005730172553  0.8693635093445631  0.20880004893908027  1.0000
  C   C42       1.0  0.4079969519925613  0.872553202509275  0.21625619992051578  1.0000
  C   C43       1.0  0.4305038577310918  0.8502710853323046  0.20928096272839464  1.0000
  C   C44       1.0  0.42270658310895687  0.8238270220035495  0.19351056748359827  1.0000
  H   H5        1.0  0.5700484620877462  0.7347905312879576  0.3016402572415068  1.0000
  H   H6        1.0  0.5010414213517068  0.7061970713148251  0.24571713763367714  1.0000
  H   H7        1.0  0.4747767304587432  0.6756399145918359  0.28068274971213075  1.0000
  H   H8        1.0  0.545059527782377  0.7028116559217497  0.3354612150115097  1.0000
  H   H9        1.0  0.5457323972333323  0.7098077170956937  0.20820586206715885  1.0000
  H   H10       1.0  0.587875321461378  0.6748603645127356  0.18823700995176582  1.0000
  H   H11       1.0  0.6479858240858581  0.6982053981617219  0.25117809256357715  1.0000
  H   H12       1.0  0.6096657063718866  0.7353015997425835  0.26897587726233424  1.0000
  H   H13       1.0  0.4892849328535887  0.769828038511855  0.2643674513225824  1.0000
  H   H14       1.0  0.4497483099429026  0.7924091562994453  0.23688581168445022  1.0000
  H   H15       1.0  0.5146078141823467  0.7901091894891472  0.17082971930094373  1.0000
  H   H16       1.0  0.5542425687697322  0.771428645885836  0.19997071023691665  1.0000
  H   H17       1.0  0.39463164978315035  0.7063361524474039  0.2025004757484751  1.0000
  H   H18       1.0  0.40744765394070853  0.761477422922255  0.2088318448920928  1.0000
  H   H19       1.0  0.473262927222417  0.7563691376195888  0.14475624293185352  1.0000
  H   H20       1.0  0.46279772004898645  0.7022658727286235  0.13997174690229486  1.0000
  H   H21       1.0  0.4947635732796126  0.8481323728295966  0.17549339070905484  1.0000
  H   H22       1.0  0.5104778854580626  0.8761143525077939  0.1373225478422331  1.0000
  H   H23       1.0  0.4341234869969023  0.8345437696054391  0.09470464349719804  1.0000
  H   H24       1.0  0.4212954646169176  0.8037029732670187  0.1326076054598893  1.0000
  H   H25       1.0  0.38299638933724844  0.8022928740819051  0.17365657824846292  1.0000
  H   H26       1.0  0.3449369725983195  0.8402769209116191  0.18828053066245168  1.0000
  H   H27       1.0  0.4142939420398569  0.8933575382352976  0.2280922434294257  1.0000
  H   H28       1.0  0.45426284174672826  0.8537450026120149  0.21570970697811312  1.0000
  C   C45       1.0  0.397441375479979  0.8357805999621251  0.9033190505915148  1.0000
  C   C46       1.0  0.3958340297668873  0.8043544512570326  0.8959066190454714  1.0000
  C   C47       1.0  0.4223673301381373  0.7873951859379059  0.8903641869859769  1.0000
  C   C48       1.0  0.45125737100574753  0.8018899445467017  0.8892076091951465  1.0000
  C   C49       1.0  0.45248815028697204  0.8337222513882253  0.896367660364153  1.0000
  C   C50       1.0  0.4257472366764554  0.8509779359581173  0.9027447361902262  1.0000
  H   H29       1.0  0.3730266641623174  0.7926365019835121  0.8957337285509659  1.0000
  H   H30       1.0  0.42031474444167016  0.7619060940278204  0.8867672698014358  1.0000
  H   H31       1.0  0.4741691043560391  0.8462223374231606  0.8972539725543769  1.0000
  H   H32       1.0  0.4268228935415964  0.8764999541811993  0.9069994321527137  1.0000
  C   C51       1.0  0.5021557607031882  0.8213049748257766  0.8491347721640572  1.0000
  C   C52       1.0  0.5098148298430694  0.7989095990877342  0.8678347670295445  1.0000
  C   C53       1.0  0.5412957966966027  0.7901857565773251  0.8707440967301899  1.0000
  C   C54       1.0  0.5636249566050537  0.8040968659685604  0.8554840265312444  1.0000
  C   C55       1.0  0.5556768748819703  0.8270099484440423  0.837177506584287  1.0000
  C   C56       1.0  0.5252423450415047  0.836013454209279  0.8347292182023233  1.0000
  C   C57       1.0  0.4830125870012562  0.7808145863389878  0.8829636789223133  1.0000
  C   C58       1.0  0.47831416898439644  0.7514697938031417  0.8634389765255638  1.0000
  C   C59       1.0  0.4945893491502623  0.7234997533965616  0.864834023963988  1.0000
  C   C60       1.0  0.4901425226301847  0.6983169784158676  0.8475608724899376  1.0000
  C   C61       1.0  0.46971728202283375  0.7020012790429702  0.8271220364440782  1.0000
  C   C62       1.0  0.4558194624757058  0.7308119051153709  0.8233482542709051  1.0000
  C   C63       1.0  0.45933173839285835  0.755450886782606  0.841342776428927  1.0000
  C   C64       1.0  0.5080352056725862  0.7923554082764169  0.9285551010481379  1.0000
  C   C65       1.0  0.5115910978799973  0.7869951522680566  0.954911958848452  1.0000
  C   C66       1.0  0.4981721959685404  0.7604944731552621  0.9669109566165511  1.0000
  C   C67       1.0  0.4865106169548583  0.7372664993336665  0.9498822365312845  1.0000
  C   C68       1.0  0.48090243450376347  0.7429785240442236  0.9240718716733728  1.0000
  C   C69       1.0  0.4915955108407819  0.7710031094550884  0.9127982190833718  1.0000
  C   C70       1.0  0.4959908117678126  0.7551030143979082  0.9983352944282354  1.0000
  C   C71       1.0  0.5837618002443029  0.702928345458377  0.0036313078518830366  1.0000
  C   C72       1.0  0.5835431538810785  0.7352645481758023  0.004706408513118765  1.0000
  C   C73       1.0  0.5559088860955906  0.7519128973005997  0.0039234331701856195  1.0000
  C   C74       1.0  0.5278455723230251  0.7352801935535102  0.0023614569784455863  1.0000
  C   C75       1.0  0.5284695814560397  0.7028696430763473  0.9997661123137989  1.0000
  C   C76       1.0  0.5562416390217115  0.6866050940249768  0.0012525731171340038  1.0000
  C   C77       1.0  0.46460456918404597  0.7372412630225147  0.007204378071664852  1.0000
  C   C78       1.0  0.4364221582903554  0.7434980856742348  0.994299195642709  1.0000
  C   C79       1.0  0.4093973304170692  0.7273440979324044  0.0006504372569595684  1.0000
  C   C80       1.0  0.4094704570671117  0.705474865806839  0.02066797692540301  1.0000
  C   C81       1.0  0.43624864010621694  0.7004633472370672  0.03472774989812577  1.0000
  C   C82       1.0  0.46311118211732877  0.7170990996208851  0.02874414899058264  1.0000
  C   C83       1.0  0.503131669716914  0.7899399020182434  0.04112867268895837  1.0000
  C   C84       1.0  0.4979178386507422  0.8166066257123284  0.056740673049663994  1.0000
  C   C85       1.0  0.47980577147351916  0.8414113056187155  0.047161954773083714  1.0000
  C   C86       1.0  0.4679733234436439  0.8389206714467774  0.021908019092891085  1.0000
  C   C87       1.0  0.47401573424595284  0.8126975062666357  0.006729426023540208  1.0000
  C   C88       1.0  0.49233622867026877  0.7877574775284434  0.015596522419906167  1.0000
  H   H33       1.0  0.47803680160466244  0.8274080967150836  0.8455338804853896  1.0000
  H   H34       1.0  0.5484372941055359  0.7719584925613335  0.884615081231901  1.0000
  H   H35       1.0  0.5875559800035872  0.7963785195857662  0.8571612630526547  1.0000
  H   H36       1.0  0.5185652471645357  0.8544939137490366  0.8212835045721546  1.0000
  H   H37       1.0  0.5129668782477923  0.7212840034251119  0.8793667617377722  1.0000
  H   H38       1.0  0.5028581537128792  0.6762909101583451  0.8487293737631476  1.0000
  H   H39       1.0  0.44204013251103663  0.7355785919075374  0.8061347202087529  1.0000
  H   H40       1.0  0.44740675548552444  0.7777911826537307  0.8371735320901605  1.0000
  H   H41       1.0  0.516369411888281  0.815153299774461  0.9210631796195632  1.0000
  H   H42       1.0  0.523177119084774  0.8048632667617482  0.9670421149227277  1.0000
  H   H43       1.0  0.47641818408277836  0.7152900309512809  0.9571674842652776  1.0000
  H   H44       1.0  0.4676092773663687  0.7262264595526028  0.9133884314611666  1.0000
  H   H45       1.0  0.6053314894669346  0.7468630567444383  0.006669808611641903  1.0000
  H   H46       1.0  0.5566110607468063  0.7778167397848271  0.006759234729489583  1.0000
  H   H47       1.0  0.5082484284582945  0.688093865788677  0.9958850187992082  1.0000
  H   H48       1.0  0.5570078276624296  0.6610376339302405  0.9984346567813996  1.0000
  H   H49       1.0  0.4353622869831729  0.7623595625397938  0.9793113782914332  1.0000
  H   H50       1.0  0.3871114897463277  0.732894359336453  0.9912885163418361  1.0000
  H   H51       1.0  0.4366211001850279  0.6849047073942508  0.051579792426319646  1.0000
  H   H52       1.0  0.4831704518593104  0.7116644059986595  0.041186302853793544  1.0000
  H   H53       1.0  0.516290726178622  0.7703042776509605  0.04941329567792918  1.0000
  H   H54       1.0  0.5071089722747596  0.8184295312678715  0.0765374295693768  1.0000
  H   H55       1.0  0.4531514446628497  0.856605159181116  0.013283366838245492  1.0000
  H   H56       1.0  0.462404678663631  0.8124107163393277  0.9877015353926114  1.0000
  C   C89       1.0  0.820513803041126  0.49631517466525804  0.28578600017063993  1.0000
  C   C90       1.0  0.81300103027156  0.4844068555810124  0.26091560317366086  1.0000
  C   C91       1.0  0.7876354153457896  0.4965022089553894  0.24770637194402284  1.0000
  C   C92       1.0  0.7688805096449187  0.520566104706044  0.2590952848636942  1.0000
  C   C93       1.0  0.7788538431006155  0.5341221401446646  0.28247524656321144  1.0000
  C   C94       1.0  0.8051049876712226  0.5230851991465764  0.29524927068599066  1.0000
  H   H57       1.0  0.8261115747181105  0.4658549612021356  0.2521657543540285  1.0000
  H   H58       1.0  0.7823956713038955  0.48701803865425974  0.22774248794628799  1.0000
  H   H59       1.0  0.7660143906887052  0.5536045984492618  0.291296636277122  1.0000
  H   H60       1.0  0.8130635837367461  0.535353040214227  0.3131106472907727  1.0000
  C   C95       1.0  0.7017935502405022  0.5375553245404805  0.2852335454870474  1.0000
  C   C96       1.0  0.7104223997438197  0.5494950552777211  0.2606433503259912  1.0000
  C   C97       1.0  0.6926408103985331  0.5736470384053652  0.2501606220671766  1.0000
  C   C98       1.0  0.66954560298517  0.5875104177210884  0.2647549644999224  1.0000
  C   C99       1.0  0.6638762330202327  0.5782440926812532  0.2904341710516574  1.0000
  C   C100      1.0  0.6785509902724979  0.5518690717670035  0.3004995774271827  1.0000
  C   C101      1.0  0.739052158202695  0.5333242334715665  0.24366828591143302  1.0000
  C   C102      1.0  0.7192985614938752  0.5074240879049338  0.227559661216466  1.0000
  C   C103      1.0  0.7008456570341062  0.5165501474762305  0.20668164356962127  1.0000
  C   C104      1.0  0.6795352562461767  0.49590951441200315  0.19580782508875272  1.0000
  C   C105      1.0  0.6744289238990999  0.4668949981760576  0.2074129504889092  1.0000
  C   C106      1.0  0.6922766455007953  0.45687746952453356  0.2283625090300321  1.0000
  C   C107      1.0  0.7147491101556278  0.47690003229319405  0.23808412166360954  1.0000
  C   C108      1.0  0.7660084414381126  0.5877969802378298  0.23859484415887308  1.0000
  C   C109      1.0  0.7807531161474708  0.6109871539353362  0.22436218069164465  1.0000
  C   C110      1.0  0.7848800907220332  0.6085181768094204  0.19768120289530902  1.0000
  C   C111      1.0  0.776604429395384  0.5797675272533318  0.18548705746559563  1.0000
  C   C112      1.0  0.7652257752742568  0.5551719169724231  0.19996872298985335  1.0000
  C   C113      1.0  0.7568806754091626  0.5594873761954785  0.226377249213813  1.0000
  C   C114      1.0  0.7941081671858451  0.6391847397706892  0.1812413041148928  1.0000
  C   C115      1.0  0.6973276975442309  0.6754383407207468  0.18217491278522288  1.0000
  C   C116      1.0  0.7175606213129079  0.6831097670699314  0.20246470530133603  1.0000
  C   C117      1.0  0.748242222760792  0.6741051568848275  0.20146710727556827  1.0000
  C   C118      1.0  0.7600419046638721  0.6563218654475567  0.18044004609897737  1.0000
  C   C119      1.0  0.7401946298273314  0.6486934764004579  0.15980288279620244  1.0000
  C   C120      1.0  0.7092530065105971  0.6587382309220771  0.16048907920715386  1.0000
  C   C121      1.0  0.8115727921984118  0.6315298728970177  0.15364817991651056  1.0000
  C   C122      1.0  0.8338581304509123  0.6071036204123972  0.15174857044871892  1.0000
  C   C123      1.0  0.8472263608843357  0.5992060928571048  0.1278876949598873  1.0000
  C   C124      1.0  0.8410927645370944  0.6163807157673717  0.10550135679201124  1.0000
  C   C125      1.0  0.8211077469525597  0.6419169849562658  0.1075623307213414  1.0000
  C   C126      1.0  0.8068108671539875  0.6493462058426659  0.1309255995455271  1.0000
  C   C127      1.0  0.8192441704889922  0.6947417627943359  0.18805696536783242  1.0000
  C   C128      1.0  0.8418236583714994  0.7151290028794542  0.196290527400424  1.0000
  C   C129      1.0  0.8669725580782536  0.7037158712326743  0.20988707308269575  1.0000
  C   C130      1.0  0.8682739281681435  0.6717464324518279  0.21601773027292193  1.0000
  C   C131      1.0  0.8457903671108686  0.6506848813954867  0.2075123128420733  1.0000
  C   C132      1.0  0.8203162261869041  0.6623100461195071  0.19351811902243873  1.0000
  H   H61       1.0  0.7149057848332502  0.5186090085189873  0.29418609350713454  1.0000
  H   H62       1.0  0.6969233227161499  0.583248583767101  0.23087637656508433  1.0000
  H   H63       1.0  0.656826576479304  0.6065782382661701  0.2565118636814271  1.0000
  H   H64       1.0  0.6738198983456778  0.5447940270850918  0.32029057093041197  1.0000
  H   H65       1.0  0.7016246186855786  0.5402621896969884  0.19857586152319873  1.0000
  H   H66       1.0  0.6659797047645237  0.5033332267324481  0.1786388053608182  1.0000
  H   H67       1.0  0.687015317735455  0.43368366586207685  0.2373071080618661  1.0000
  H   H68       1.0  0.7286294163990901  0.46906900498213855  0.25423646579396875  1.0000
  H   H69       1.0  0.7601155151909593  0.5914170990873522  0.2593357417583514  1.0000
  H   H70       1.0  0.7858621537000582  0.6334015911725249  0.2336982673949453  1.0000
  H   H71       1.0  0.7780080076100435  0.5758625394236836  0.16421854577081588  1.0000
  H   H72       1.0  0.7587650675224304  0.533657673697871  0.18934430401542673  1.0000
  H   H73       1.0  0.7093704174194351  0.6954057579139442  0.22025454101183994  1.0000
  H   H74       1.0  0.761512592329927  0.6788874592701029  0.2190462947973643  1.0000
  H   H75       1.0  0.7468208336410271  0.6336141005034593  0.14270262181665752  1.0000
  H   H76       1.0  0.6944637732584439  0.6531902638554621  0.14361914016224334  1.0000
  H   H77       1.0  0.841220375008085  0.5940132304520344  0.16924349869503172  1.0000
  H   H78       1.0  0.864057780668005  0.5790842770189731  0.12595211632025027  1.0000
  H   H79       1.0  0.8167804018507122  0.6577161497365129  0.0903664831580526  1.0000
  H   H80       1.0  0.7910681298896473  0.6683927786912026  0.13036241372779286  1.0000
  H   H81       1.0  0.8018714305030294  0.7043800367293203  0.17438073107832305  1.0000
  H   H82       1.0  0.8424396289028405  0.7400405728227907  0.19072504327499534  1.0000
  H   H83       1.0  0.8880729218574314  0.6631954420792368  0.22711253062722747  1.0000
  H   H84       1.0  0.8474281965492462  0.6255702713680948  0.21229959101752055  1.0000
  C   C133      1.0  0.814596601157482  0.6603972669180147  0.8806306508700198  1.0000
  C   C134      1.0  0.7828129706902195  0.6642753343007165  0.87776106611064  1.0000
  C   C135      1.0  0.763574238227237  0.6382981084098519  0.87646538102538  1.0000
  C   C136      1.0  0.7764160485519711  0.6073684245700497  0.8785837863948389  1.0000
  C   C137      1.0  0.8081203455607363  0.6043182519000276  0.881870693037508  1.0000
  C   C138      1.0  0.8272006942953555  0.6303367064921609  0.8821787163323168  1.0000
  H   H85       1.0  0.7726426491570847  0.6875905352595137  0.8775206092159828  1.0000
  H   H86       1.0  0.7386668059186512  0.6428778328261723  0.8751299509988542  1.0000
  H   H87       1.0  0.8184037659034213  0.5806980342911137  0.8854258780337202  1.0000
  H   H88       1.0  0.8518340535309633  0.6271403867787381  0.8846349537025338  1.0000
  C   C139      1.0  0.7877250442562403  0.5505643929490479  0.8423145402428721  1.0000
  C   C140      1.0  0.771126621775468  0.5457503696552672  0.8661376580375013  1.0000
  C   C141      1.0  0.7702784988856896  0.5149163436072105  0.8755790688351559  1.0000
  C   C142      1.0  0.7868047603942132  0.4905492675776917  0.8630514633482237  1.0000
  C   C143      1.0  0.806419826418725  0.4975800925693299  0.8419707465009242  1.0000
  C   C144      1.0  0.8058919651959835  0.5274575158400885  0.8310309514175547  1.0000
  C   C145      1.0  0.7557378339545593  0.5761631505790389  0.8794065066790377  1.0000
  C   C146      1.0  0.7257804278554997  0.5776251527986286  0.860483940142463  1.0000
  C   C147      1.0  0.69973050534573  0.5605495815405539  0.8681348413361001  1.0000
  C   C148      1.0  0.6725592674441323  0.562045569249386  0.854037310669175  1.0000
  C   C149      1.0  0.6715385380717794  0.5792374650414963  0.8310110789469218  1.0000
  C   C150      1.0  0.6979730545713948  0.5942741335011714  0.8222910388332387  1.0000
  C   C151      1.0  0.7248434027883747  0.5929707046404965  0.8366588351007703  1.0000
  C   C152      1.0  0.7693907798512516  0.5635862692781617  0.9286981828366941  1.0000
  C   C153      1.0  0.7656234620500701  0.5673005652987845  0.9561718734865732  1.0000
  C   C154      1.0  0.7390600341818456  0.5830951785516841  0.9670480766639177  1.0000
  C   C155      1.0  0.7176179886238311  0.5937328922632986  0.9486660413285555  1.0000
  C   C156      1.0  0.7225548620967042  0.591584128511324  0.9217189711504464  1.0000
  C   C157      1.0  0.7484565642272183  0.5758977580275386  0.910983862514595  1.0000
  C   C158      1.0  0.7316128129791933  0.5838779951672547  0.9980888757923885  1.0000
  C   C159      1.0  0.70071721094815  0.48411540489679533  0.004412295947753053  1.0000
  C   C160      1.0  0.7317679292538732  0.49157320594228715  0.009926906548361591  1.0000
  C   C161      1.0  0.7415967805629559  0.5227264418937622  0.007713113319865128  1.0000
  C   C162      1.0  0.7208298361159101  0.5474257243473163  0.0010498739166793225  1.0000
  C   C163      1.0  0.6906665243994745  0.5388440617672151  0.9947165175259982  1.0000
  C   C164      1.0  0.6805911559978968  0.5082237589673088  0.9967355605422931  1.0000
  C   C165      1.0  0.7061236962081064  0.6089715641214148  0.007931710496826172  1.0000
  C   C166      1.0  0.7054370315653413  0.6395755236979765  0.9968627443543432  1.0000
  C   C167      1.0  0.6829178862119343  0.6614302303394773  0.00375849166393305  1.0000
  C   C168      1.0  0.6598904409917126  0.653335951797289  0.02195571302240995  1.0000
  C   C169      1.0  0.6615951827966792  0.6247822144265762  0.03472973714518912  1.0000
  C   C170      1.0  0.6843456617809067  0.6030122533619628  0.02802874004780076  1.0000
  C   C171      1.0  0.7672375601561366  0.5837701118220285  0.03987869428615376  1.0000
  C   C172      1.0  0.7948172436887114  0.5901482407459739  0.05175904211142771  1.0000
  C   C173      1.0  0.8152350531722885  0.6116346953063014  0.04022447527516482  1.0000
  C   C174      1.0  0.8079764187121421  0.6257044902379632  0.016421229951168348  1.0000
  C   C175      1.0  0.7809277468333231  0.6181141460207049  0.0041420303471466635  1.0000
  C   C176      1.0  0.7607443899274872  0.5950424201639903  0.015340167548742789  1.0000
  H   H89       1.0  0.787936469099188  0.5727830324588298  0.8323147130204351  1.0000
  H   H90       1.0  0.7570820709144179  0.5090614776925236  0.8934165984751787  1.0000
  H   H91       1.0  0.7848231447542998  0.46649529984223126  0.8702929916468248  1.0000
  H   H92       1.0  0.8185151812591179  0.5319554646147489  0.8128396918002677  1.0000
  H   H93       1.0  0.6989220485200137  0.5462256453271135  0.8862704580356152  1.0000
  H   H94       1.0  0.6523791171352255  0.5494146084397842  0.8601143121886924  1.0000
  H   H95       1.0  0.6986468340071692  0.6091980330482939  0.804727749287949  1.0000
  H   H96       1.0  0.7447798162782967  0.6052646515197461  0.8297392408264211  1.0000
  H   H97       1.0  0.7909635264861969  0.5528875470555709  0.9217428181152058  1.0000
  H   H98       1.0  0.7829320108773216  0.5586825199506295  0.9694089261750971  1.0000
  H   H99       1.0  0.6954223341397436  0.6031929480979019  0.9554803115085507  1.0000
  H   H100      1.0  0.7047615846009463  0.6014498237561239  0.9096305472644997  1.0000
  H   H101      1.0  0.7478953186363525  0.4727756182945417  0.015006310042111393  1.0000
  H   H102      1.0  0.7659613339333607  0.5267589128387776  0.010940402550635664  1.0000
  H   H103      1.0  0.6728420459496817  0.5558490311295566  0.987938017793142  1.0000
  H   H104      1.0  0.6567409607784991  0.5037397809822707  0.991934371637403  1.0000
  H   H105      1.0  0.7217473649511135  0.6453448544514212  0.98125888041345  1.0000
  H   H106      1.0  0.6818753367249264  0.6838798951012297  0.992983638086816  1.0000
  H   H107      1.0  0.643007356643772  0.6195810108359215  0.049759474116352974  1.0000
  H   H108      1.0  0.6842783220915761  0.5806607713260552  0.03886519828387969  1.0000
  H   H109      1.0  0.7521400165176859  0.567553221535492  0.05046277214519579  1.0000
  H   H110      1.0  0.7997178924069848  0.5800556696382899  0.07181056370465332  1.0000
  H   H111      1.0  0.8226268113815739  0.6449203871583842  0.008939244757910192  1.0000
  H   H112      1.0  0.7757823984924306  0.6290045898121639  0.9857500587764682  1.0000
  C   C177      1.0  0.49833192633203516  0.2611628705897941  0.30612547386333516  1.0000
  C   C178      1.0  0.48624585916061613  0.26982581366418046  0.28190093216192286  1.0000
  C   C179      1.0  0.49847242982718115  0.2954288477291668  0.2683022005078815  1.0000
  C   C180      1.0  0.5226814629585168  0.3133830049724622  0.27827619351849575  1.0000
  C   C181      1.0  0.5367658511315928  0.3025050860298282  0.3011295347462432  1.0000
  C   C182      1.0  0.5237926057625636  0.2776123305655248  0.31539399416648417  1.0000
  H   H113      1.0  0.4679663930263394  0.25666494231694276  0.27297620560072167  1.0000
  H   H114      1.0  0.48735116191663785  0.300394141048669  0.24973336394857087  1.0000
  H   H115      1.0  0.5573526091643065  0.31474701778577924  0.30848036163332476  1.0000
  H   H116      1.0  0.5346754310197683  0.2712042750635053  0.3339747542081745  1.0000
  C   C183      1.0  0.5390661753094212  0.3779433913786111  0.3059267491570069  1.0000
  C   C184      1.0  0.5474612170137209  0.3726518705802942  0.27978252679246385  1.0000
  C   C185      1.0  0.5676836784222652  0.39436337346508804  0.26772589885952963  1.0000
  C   C186      1.0  0.5816986349059454  0.4179616600132682  0.28230633056283244  1.0000
  C   C187      1.0  0.5754815677525987  0.4204775880776892  0.30923750276443535  1.0000
  C   C188      1.0  0.5540988341099939  0.40064105985932813  0.3206383391664864  1.0000
  C   C189      1.0  0.5316181135615227  0.3452190471658551  0.2630658044961324  1.0000
  C   C190      1.0  0.5023867741813434  0.3659508448696131  0.2521737033422817  1.0000
  C   C191      1.0  0.504659675062596  0.3861260870477313  0.23022257228126441  1.0000
  C   C192      1.0  0.4797107705676884  0.40391628642609917  0.22208082106299648  1.0000
  C   C193      1.0  0.45222376295678246  0.4035676016662164  0.23584250697622702  1.0000
  C   C194      1.0  0.4488213017217726  0.3847085288666849  0.2577519058489153  1.0000
  C   C195      1.0  0.47354433011067415  0.36750393470110293  0.26609436902057476  1.0000
  C   C196      1.0  0.5863478764360324  0.3226772734097398  0.24921667971211747  1.0000
  C   C197      1.0  0.6075508146951382  0.3106645764112426  0.23098567515356486  1.0000
  C   C198      1.0  0.6000260851659119  0.30595170457131965  0.20470830723578184  1.0000
  C   C199      1.0  0.569764427131954  0.31432936569862646  0.19737178852755594  1.0000
  C   C200      1.0  0.5477065555914774  0.3249773345207222  0.21551296951884819  1.0000
  C   C201      1.0  0.555531421134941  0.33010918683780116  0.24167507710696082  1.0000
  C   C202      1.0  0.6251181595621289  0.29548205386403126  0.18247816668707978  1.0000
  C   C203      1.0  0.6557916179542727  0.3930780575013469  0.16942712032367901  1.0000
  C   C204      1.0  0.6723243224786413  0.3734951882012305  0.18605779482217036  1.0000
  C   C205      1.0  0.6636780388215536  0.3422724032744957  0.18930475779886743  1.0000
  C   C206      1.0  0.6386453669336246  0.32979074450951634  0.1755740729398241  1.0000
  C   C207      1.0  0.6228506168663975  0.34985558198312916  0.1589779765402339  1.0000
  C   C208      1.0  0.6317370441376876  0.38081541899502636  0.15490908817816323  1.0000
  C   C209      1.0  0.6114561716145366  0.277350770645168  0.15674749043640576  1.0000
  C   C210      1.0  0.5861652633864293  0.2567848537176504  0.15983090297979471  1.0000
  C   C211      1.0  0.573567069217275  0.24201621757813674  0.13810492701104737  1.0000
  C   C212      1.0  0.586017107040143  0.24605483570006767  0.11350380199114309  1.0000
  C   C213      1.0  0.613118934042147  0.2640450856546015  0.11041760730186553  1.0000
  C   C214      1.0  0.625416660340247  0.27981843602423007  0.1315203825915675  1.0000
  C   C215      1.0  0.6799350776650137  0.2682379278939045  0.1796435574760138  1.0000
  C   C216      1.0  0.7004037391976812  0.24543706585702613  0.18704605278674066  1.0000
  C   C217      1.0  0.6918546172657348  0.22333697829692242  0.2062623344392687  1.0000
  C   C218      1.0  0.6624249426193098  0.22365045238632916  0.21629197036765488  1.0000
  C   C219      1.0  0.6424988628040756  0.24748364059523092  0.2096784121410511  1.0000
  C   C220      1.0  0.6507063061627749  0.27084289702457587  0.19176735435968698  1.0000
  H   H117      1.0  0.5218823617076568  0.3639276549387808  0.31577157110850784  1.0000
  H   H118      1.0  0.573337080042422  0.3919826529475617  0.24687371542450753  1.0000
  H   H119      1.0  0.5972065157993348  0.4340923408349006  0.27203226324566254  1.0000
  H   H120      1.0  0.5483080012067677  0.4042270488095613  0.34126596368335754  1.0000
  H   H121      1.0  0.5261861809620622  0.3881461105434371  0.21857730449042964  1.0000
  H   H122      1.0  0.4814415006526016  0.4179433515782998  0.20413399283449324  1.0000
  H   H123      1.0  0.4269120303721119  0.38479543307804454  0.2692004361804851  1.0000
  H   H124      1.0  0.47033897840155076  0.35423490360740134  0.28398754157836936  1.0000
  H   H125      1.0  0.5936590294218339  0.3279997818989475  0.26953230644005327  1.0000
  H   H126      1.0  0.6311819035949428  0.3058990498315841  0.23745217709748573  1.0000
  H   H127      1.0  0.5629653844687741  0.3123295345850892  0.17714280577157923  1.0000
  H   H128      1.0  0.5245097709494172  0.33058200332835536  0.20936045261092592  1.0000
  H   H129      1.0  0.6910681357666412  0.38369189020882427  0.198292082642562  1.0000
  H   H130      1.0  0.6757945966304534  0.32795791614320824  0.2030569049261942  1.0000
  H   H131      1.0  0.6038953859461911  0.3419836228664747  0.14739630065542417  1.0000
  H   H132      1.0  0.6198622890314864  0.39508178252854215  0.1407276956851675  1.0000
  H   H133      1.0  0.5751718045162576  0.25333694434036075  0.17849333887578592  1.0000
  H   H134      1.0  0.5518384150714534  0.22981227245367944  0.14150649780926783  1.0000
  H   H135      1.0  0.6237103596052693  0.26757377361050555  0.09134420871318752  1.0000
  H   H136      1.0  0.6459590530004357  0.29308844943300527  0.12834277453737897  1.0000
  H   H137      1.0  0.6861471375473017  0.28440062720125453  0.16369828448964857  1.0000
  H   H138      1.0  0.722611993655517  0.24379475412175164  0.1773451075226214  1.0000
  H   H139      1.0  0.6550677754916782  0.2042449945449386  0.22909580319638329  1.0000
  H   H140      1.0  0.6190938630583609  0.24630301467495974  0.21767111982957285  1.0000
  C   C221      1.0  0.651121927295867  0.2661410464141512  0.8816143381663445  1.0000
  C   C222      1.0  0.6585992121994236  0.2975666106844634  0.8842037210898014  1.0000
  C   C223      1.0  0.6360520028417224  0.32070599267677374  0.8844282800079525  1.0000
  C   C224      1.0  0.6049231135602291  0.31228169676273626  0.8820952519556589  1.0000
  C   C225      1.0  0.59733518023642  0.28020500126752196  0.8809525848942715  1.0000
  C   C226      1.0  0.6201681944362618  0.25691774184370747  0.8810897049416381  1.0000
  H   H141      1.0  0.682655027751006  0.30474507881392343  0.8856663349283774  1.0000
  H   H142      1.0  0.6418509302837607  0.3455465390282073  0.8873177372379649  1.0000
  H   H143      1.0  0.573060017193629  0.27245325259354375  0.8797145299738466  1.0000
  H   H144      1.0  0.6143154172554092  0.23214935399010309  0.8798595990094662  1.0000
  C   C227      1.0  0.5438145604905539  0.3164048872460882  0.8481948043031247  1.0000
  C   C228      1.0  0.5454935213604445  0.33076802114472803  0.873186423370964  1.0000
  C   C229      1.0  0.5178121816188396  0.3431767710001425  0.8841600016544093  1.0000
  C   C230      1.0  0.49079684132124923  0.3422417274187037  0.8699313126813074  1.0000
  C   C231      1.0  0.4891792310415298  0.3264191019901422  0.8460386412394633  1.0000
  C   C232      1.0  0.5162460553038096  0.313042668557435  0.8355161680393831  1.0000
  C   C233      1.0  0.5785317067781199  0.33953750755505413  0.8848932958207605  1.0000
  C   C234      1.0  0.5859726708359382  0.3718050135557258  0.868196445995062  1.0000
  C   C235      1.0  0.5732064992912008  0.4004730896954034  0.8757936915179905  1.0000
  C   C236      1.0  0.5793691687054815  0.4278916628566858  0.8626599756767571  1.0000
  C   C237      1.0  0.5963893100149791  0.42738748129675624  0.8395701520484792  1.0000
  C   C238      1.0  0.60739900106416  0.39903942138485726  0.8302201546157355  1.0000
  C   C239      1.0  0.6025114902316987  0.3714016691808643  0.8441169733292693  1.0000
  C   C240      1.0  0.5626236551968372  0.32311193640921987  0.9320725283501476  1.0000
  C   C241      1.0  0.5629971132719158  0.3255336705625352  0.9588228610689918  1.0000
  C   C242      1.0  0.5798276706737879  0.34927769635054084  0.9716227194035936  1.0000
  C   C243      1.0  0.597646144953946  0.3694896218582865  0.9560009702391308  1.0000
  C   C244      1.0  0.5975555340406635  0.3661852062887474  0.9288432518723138  1.0000
  C   C245      1.0  0.5796132316646786  0.3437447326808014  0.9162600034676096  1.0000
  C   C246      1.0  0.5777660229781272  0.35520107735962797  0.0035736776870478604  1.0000
  C   C247      1.0  0.49003506054068635  0.41226295464459506  0.0038359942994010687  1.0000
  C   C248      1.0  0.4895415957749474  0.3793936043358592  0.003651180322515879  1.0000
  C   C249      1.0  0.5167646374613607  0.36198732527325234  0.004503709312664084  1.0000
  C   C250      1.0  0.5456549854120378  0.37644275538336425  0.004624931383524267  1.0000
  C   C251      1.0  0.5457797140512165  0.409388722420116  0.001578481635512441  1.0000
  C   C252      1.0  0.518813147205326  0.4267574950961067  0.002281967095914217  1.0000
  C   C253      1.0  0.6065746732402536  0.3716855280854196  0.017456585671138614  1.0000
  C   C254      1.0  0.6362789338618354  0.3647227937257469  0.008150307673787216  1.0000
  C   C255      1.0  0.6610026706075918  0.38343072165927033  0.015234843454388969  1.0000
  C   C256      1.0  0.6574443100253737  0.4093039960271698  0.031246093043254985  1.0000
  C   C257      1.0  0.6286338773691265  0.41324589186602656  0.04394857627175619  1.0000
  C   C258      1.0  0.6035445383621794  0.39355558755961534  0.03798484783484568  1.0000
  C   C259      1.0  0.5629739986835838  0.32032149954968214  0.04456859735550012  1.0000
  C   C260      1.0  0.5637218462580742  0.2931337584301887  0.05915577440567108  1.0000
  C   C261      1.0  0.5802302318357768  0.2669135846963841  0.0498228785908188  1.0000
  C   C262      1.0  0.5961076195818095  0.26881037453187373  0.026279962632112408  1.0000
  C   C263      1.0  0.595612924607622  0.2965583310654546  0.01173132688182199  1.0000
  C   C264      1.0  0.5778509360634303  0.3224154741689307  0.019817435182318155  1.0000
  H   H145      1.0  0.5648885948477121  0.3082458605272818  0.8379346477153977  1.0000
  H   H146      1.0  0.5191788384765644  0.35699052192235897  0.9021008681417226  1.0000
  H   H147      1.0  0.4709194474910219  0.35502916056358697  0.8764574320371268  1.0000
  H   H148      1.0  0.5170814159873296  0.3027118308276883  0.815909988513039  1.0000
  H   H149      1.0  0.5594452473789545  0.40179871172935755  0.8935815399814311  1.0000
  H   H150      1.0  0.5708048360768172  0.45023511332555727  0.870624861906393  1.0000
  H   H151      1.0  0.6208980087360323  0.39784014796737727  0.812060690951461  1.0000
  H   H152      1.0  0.6109600342372613  0.3490873247880099  0.8354982828158135  1.0000
  H   H153      1.0  0.5490972341001974  0.3039616863689868  0.9237241034372983  1.0000
  H   H154      1.0  0.549888308952842  0.3077322930802065  0.969627523352058  1.0000
  H   H155      1.0  0.6096578393596107  0.3895387725929654  0.9654125723308361  1.0000
  H   H156      1.0  0.609560080753127  0.38291786344651924  0.9168998970219866  1.0000
  H   H157      1.0  0.4674961566525598  0.3677761544735263  0.003893624464236467  1.0000
  H   H158      1.0  0.5149577759058633  0.33624229289293467  0.0029755163209999047  1.0000
  H   H159      1.0  0.567445874647717  0.42219618393495095  0.9991460912300547  1.0000
  H   H160      1.0  0.5201277110148126  0.45261005689661826  0.0020216377306243594  1.0000
  H   H161      1.0  0.6393504534268288  0.3466587649724798  0.9934168579466116  1.0000
  H   H162      1.0  0.6834240508121516  0.3787886382474366  0.005956386915923595  1.0000
  H   H163      1.0  0.6251150376216769  0.4319766772345652  0.05896599231112761  1.0000
  H   H164      1.0  0.5809911483182634  0.3976882771565473  0.04704669444341336  1.0000
  H   H165      1.0  0.5515575680661586  0.3411920364356591  0.05311275481093568  1.0000
  H   H166      1.0  0.5530496331483603  0.2936025330664795  0.07829594449567538  1.0000
  H   H167      1.0  0.6083399815129394  0.2477347002445491  0.018895352544955113  1.0000
  H   H168      1.0  0.6091838946417688  0.29600615481451653  0.9929657528632465  1.0000
  C   C265      1.0  0.2619872010411569  0.604918845487509  0.2900844155685197  1.0000
  C   C266      1.0  0.27151513493471463  0.61649371558256  0.2658618611141707  1.0000
  C   C267      1.0  0.2967142889724765  0.6046458168643452  0.2527659029671398  1.0000
  C   C268      1.0  0.31272171760511974  0.5784153613513429  0.2626922020482353  1.0000
  C   C269      1.0  0.30137959228464706  0.5650909473335759  0.2863305058659793  1.0000
  C   C270      1.0  0.27686376899497817  0.5780598052221781  0.2998020537079706  1.0000
  H   H169      1.0  0.2608366908747733  0.636900265612249  0.2573802906480815  1.0000
  H   H170      1.0  0.3038234706593251  0.6147331677431523  0.23373801233621097  1.0000
  H   H171      1.0  0.3117978586893258  0.5436277996045815  0.2933395262581763  1.0000
  H   H172      1.0  0.27066073283225645  0.5682448880269962  0.3189153959626206  1.0000
  C   C271      1.0  0.373519886888303  0.5550335875714011  0.2895458716143702  1.0000
  C   C272      1.0  0.36444551042955026  0.5441849761737011  0.2651663246420219  1.0000
  C   C273      1.0  0.37681728646330326  0.5148777408333401  0.25647410598722475  1.0000
  C   C274      1.0  0.39321808959538607  0.4962185971456724  0.273224611483632  1.0000
  C   C275      1.0  0.4000354163930157  0.5065809871619035  0.2987408637761778  1.0000
  C   C276      1.0  0.3906046506684986  0.5361524796125766  0.30663420911153544  1.0000
  C   C277      1.0  0.3406894817762755  0.5628510005060641  0.24691743485989975  1.0000
  C   C278      1.0  0.3642231340047202  0.5872946994840921  0.2325456640982415  1.0000
  C   C279      1.0  0.3851504937460946  0.5757879045398537  0.2129057013718217  1.0000
  C   C280      1.0  0.40813916439464515  0.5946137305961211  0.20194205932369275  1.0000
  C   C281      1.0  0.41057675881305755  0.625862501623564  0.2092173708223696  1.0000
  C   C282      1.0  0.3906813705860237  0.6377503795873956  0.22878181816038468  1.0000
  C   C283      1.0  0.3678298903912705  0.6191501620264203  0.23996405738547466  1.0000
  C   C284      1.0  0.3064493147496249  0.5126623608938132  0.2382907953581909  1.0000
  C   C285      1.0  0.293224669567905  0.49059734345232003  0.2222239028515528  1.0000
  C   C286      1.0  0.2956584084571123  0.49294323948318297  0.19479035459235214  1.0000
  C   C287      1.0  0.30835719728535543  0.5209210781054121  0.18439009708666376  1.0000
  C   C288      1.0  0.3190606547762474  0.5450061768551875  0.20083714995650775  1.0000
  C   C289      1.0  0.3205577712754822  0.5399700343459376  0.2278875569819076  1.0000
  C   C290      1.0  0.28882069277557265  0.4616561155423239  0.17692520221814978  1.0000
  C   C291      1.0  0.3792517106548912  0.4172629639354953  0.1923742596128134  1.0000
  C   C292      1.0  0.3532483780460112  0.40956505036052254  0.2073672438064537  1.0000
  C   C293      1.0  0.3248041430996666  0.42356253964212726  0.20238322817174148  1.0000
  C   C294      1.0  0.32150135137540975  0.44465673362127367  0.1816437216452075  1.0000
  C   C295      1.0  0.3485203186992205  0.45287632192428723  0.1669217979509989  1.0000
  C   C296      1.0  0.37658273862275377  0.4394247680523459  0.17260393347904224  1.0000
  C   C297      1.0  0.2815890400972522  0.4670661159654417  0.14614711715144488  1.0000
  C   C298      1.0  0.2632295604459135  0.4919605502462907  0.13796522354249863  1.0000
  C   C299      1.0  0.2531898328901173  0.4944682446448545  0.11229555577666739  1.0000
  C   C300      1.0  0.2603725377975823  0.47122133920107306  0.0941969018725294  1.0000
  C   C301      1.0  0.27956323549346734  0.4460453630922941  0.1019950580735558  1.0000
  C   C302      1.0  0.2899407517995875  0.44442472987344317  0.12764843041346813  1.0000
  C   C303      1.0  0.2578324105278581  0.40798322793595654  0.18177666847374108  1.0000
  C   C304      1.0  0.2328484498227237  0.3900255423454492  0.19129160741273712  1.0000
  C   C305      1.0  0.208163218181661  0.40450338715182993  0.20430290883487223  1.0000
  C   C306      1.0  0.2090084064461741  0.43743314420052637  0.20715659561774577  1.0000
  C   C307      1.0  0.2337037495792213  0.45548051948998697  0.19786303600159935  1.0000
  C   C308      1.0  0.25910477375074376  0.44071245662525  0.18532807770053306  1.0000
  H   H173      1.0  0.36504526559074957  0.5779423762830289  0.2964376444298335  1.0000
  H   H174      1.0  0.3727716601134588  0.5053133151600614  0.23700107201412063  1.0000
  H   H175      1.0  0.40148076541237016  0.4734987100429803  0.2660446878439927  1.0000
  H   H176      1.0  0.39551535407030336  0.5448999655582115  0.32627019734382867  1.0000
  H   H177      1.0  0.3842173393447949  0.5500919440035176  0.2075818664892882  1.0000
  H   H178      1.0  0.42319746891812743  0.584253077216389  0.18688687429697176  1.0000
  H   H179      1.0  0.3936737924973963  0.6609934949232564  0.2368341432608049  1.0000
  H   H180      1.0  0.3542155129392724  0.6285529136584649  0.25623563633963087  1.0000
  H   H181      1.0  0.3089622129203947  0.5077706771916773  0.25935958872311077  1.0000
  H   H182      1.0  0.28460526974415956  0.4696268862209954  0.23054053181138962  1.0000
  H   H183      1.0  0.31176653175476965  0.5232628524380831  0.16288172467134585  1.0000
  H   H184      1.0  0.3286108641454797  0.5664139377629677  0.1919257379506306  1.0000
  H   H185      1.0  0.35506987404873597  0.39265677751600186  0.22344804704253474  1.0000
  H   H186      1.0  0.3055146723603361  0.4182056750060166  0.21614888857909853  1.0000
  H   H187      1.0  0.34640561059860303  0.46913447258705326  0.15025694280301918  1.0000
  H   H188      1.0  0.3968336184211972  0.4454942920575856  0.1605957943744521  1.0000
  H   H189      1.0  0.25508472340035876  0.5095737939228518  0.15341984522893942  1.0000
  H   H190      1.0  0.2384714126720132  0.51442103478051  0.1066299143992493  1.0000
  H   H191      1.0  0.28545440869839056  0.426039424622807  0.08898554517377766  1.0000
  H   H192      1.0  0.30403423485873143  0.42392401642829763  0.13267656293298521  1.0000
  H   H193      1.0  0.27734766794008675  0.39630064506707746  0.17134580736327817  1.0000
  H   H194      1.0  0.2326832819793619  0.36467856881342214  0.18827437019655552  1.0000
  H   H195      1.0  0.19009972456337554  0.4503811029598771  0.21707295846352484  1.0000
  H   H196      1.0  0.2318055466530564  0.4807487866321059  0.20051521593225602  1.0000
  C   C309      1.0  0.23139875092283924  0.46993602428672765  0.8996923247010244  1.0000
  C   C310      1.0  0.26199851895261617  0.46683707913446054  0.8915267265179971  1.0000
  C   C311      1.0  0.2784038062181939  0.4933851313059306  0.882391351768088  1.0000
  C   C312      1.0  0.2646000567821874  0.5235482029013311  0.8837506287593732  1.0000
  C   C313      1.0  0.2342161214545555  0.5256963574398287  0.89349012661652  1.0000
  C   C314      1.0  0.21722454504301025  0.49928976564400657  0.8998274575013275  1.0000
  H   H197      1.0  0.27267841405265314  0.44406387478886605  0.8893149205365638  1.0000
  H   H198      1.0  0.3016923134350868  0.4897038576434179  0.8748894941041969  1.0000
  H   H199      1.0  0.22402084052159107  0.5484944255617008  0.8958569378688894  1.0000
  H   H200      1.0  0.19242429275263112  0.5016476360208275  0.9044458196763959  1.0000
  C   C315      1.0  0.2399356783257535  0.5813436855758735  0.8510981722625803  1.0000
  C   C316      1.0  0.26433862683698245  0.5853165151754398  0.8688880079730841  1.0000
  C   C317      1.0  0.2734512197947921  0.6168674760984743  0.8742376770674404  1.0000
  C   C318      1.0  0.26004854421848805  0.6419034440134214  0.8610840887555742  1.0000
  C   C319      1.0  0.23600814613350235  0.6370776935455004  0.8434254113512469  1.0000
  C   C320      1.0  0.22614942345020858  0.6062628963745127  0.838324148139801  1.0000
  C   C321      1.0  0.28396786148662323  0.5547243385951667  0.8766581439905182  1.0000
  C   C322      1.0  0.3050292787649764  0.5528921724392039  0.849985313907142  1.0000
  C   C323      1.0  0.3306316393060489  0.5725645134532192  0.8473800330071789  1.0000
  C   C324      1.0  0.34823953137853064  0.5741639444709171  0.8246797098033043  1.0000
  C   C325      1.0  0.33988321838957447  0.5555472826872195  0.8034916816145874  1.0000
  C   C326      1.0  0.313595874854707  0.5367406061734054  0.8046343486759747  1.0000
  C   C327      1.0  0.2965570094874518  0.5355531281046778  0.8276029502333926  1.0000
  C   C328      1.0  0.29311357816849465  0.5702199233448145  0.9252642199113421  1.0000
  C   C329      1.0  0.30816498501846645  0.5671006863995596  0.9493218328594387  1.0000
  C   C330      1.0  0.3340709350767772  0.5474811376817186  0.951976794935984  1.0000
  C   C331      1.0  0.346718792087458  0.5356903931833906  0.9286723486248715  1.0000
  C   C332      1.0  0.33289449844220326  0.5394213646802517  0.90479954965366  1.0000
  C   C333      1.0  0.3050171486670292  0.5561837960119629  0.9025003048014424  1.0000
  C   C334      1.0  0.345967923601796  0.5391199221508063  0.9811237476131468  1.0000
  C   C335      1.0  0.36049402249464024  0.6382533586931792  0.006184920328200949  1.0000
  C   C336      1.0  0.3408484009247814  0.6188526301608833  0.02113100549114777  1.0000
  C   C337      1.0  0.3375473383871787  0.5872131746977758  0.013557606932978583  1.0000
  C   C338      1.0  0.3540259777669723  0.5740319080994829  0.9924152854267172  1.0000
  C   C339      1.0  0.3755961809463332  0.5941171118891577  0.9796571592804443  1.0000
  C   C340      1.0  0.3785645195258519  0.6255958669616755  0.9859984646593785  1.0000
  C   C341      1.0  0.3750466161910258  0.5160522421381932  0.9809230356597552  1.0000
  C   C342      1.0  0.37101054073990325  0.48532293364810475  0.9713961732383796  1.0000
  C   C343      1.0  0.39545145305663887  0.4641783940441361  0.9706112106483828  1.0000
  C   C344      1.0  0.4241309563432971  0.47255464134436087  0.9805375097294785  1.0000
  C   C345      1.0  0.42839915678268803  0.5020294459416423  0.9918747542255044  1.0000
  C   C346      1.0  0.4037527848310721  0.5230463224054308  0.9928306200629432  1.0000
  C   C347      1.0  0.32680128907721173  0.5116062960532217  0.024533172463487185  1.0000
  C   C348      1.0  0.30712220748278074  0.4923166209302977  0.03859294543621017  1.0000
  C   C349      1.0  0.2803702154254357  0.47988989166084306  0.027058963480919074  1.0000
  C   C350      1.0  0.2738487011135887  0.48706173699601896  0.0012923180583996885  1.0000
  C   C351      1.0  0.2935833926374916  0.5065577626225661  0.9870596545911712  1.0000
  C   C352      1.0  0.320090755001093  0.5194473530488483  0.9982597790398308  1.0000
  H   H201      1.0  0.23224916967068482  0.5570387621629482  0.845875686980274  1.0000
  H   H202      1.0  0.29424966965008587  0.621331275112528  0.8857895442463009  1.0000
  H   H203      1.0  0.2688397017633659  0.6662305296446969  0.8638642473971062  1.0000
  H   H204      1.0  0.20744028239495044  0.6028139631134142  0.8240577014724968  1.0000
  H   H205      1.0  0.3376868045376486  0.5880512771031143  0.8636873824084742  1.0000
  H   H206      1.0  0.36815422489772215  0.59057955964991  0.8233184455649558  1.0000
  H   H207      1.0  0.30638720960692317  0.5238681789356521  0.7873154905194688  1.0000
  H   H208      1.0  0.2753812840244866  0.521788198618493  0.8291331304721201  1.0000
  H   H209      1.0  0.2716418527580573  0.5833025194828414  0.9240579609439298  1.0000
  H   H210      1.0  0.2975233359042627  0.5783790510556216  0.9664916474861985  1.0000
  H   H211      1.0  0.36756399201639023  0.5205011222049378  0.9279291182232039  1.0000
  H   H212      1.0  0.34226364933605435  0.5278021503609515  0.8872938902732056  1.0000
  H   H213      1.0  0.3272827110399393  0.6281960466259385  0.03744630388069603  1.0000
  H   H214      1.0  0.3199402207794473  0.5733547745579337  0.02484914474654909  1.0000
  H   H215      1.0  0.3899646871999463  0.5847747595619893  0.9638684813626658  1.0000
  H   H216      1.0  0.392982302078613  0.6408387576365713  0.9738086911732042  1.0000
  H   H217      1.0  0.3492593783553404  0.4776455711681387  0.9625807452656587  1.0000
  H   H218      1.0  0.391978714451331  0.44108199407956566  0.9609273557090079  1.0000
  H   H219      1.0  0.45104234624443906  0.508068301793997  0.9995812983369134  1.0000
  H   H220      1.0  0.40696909260197967  0.5448235991852088  0.0035617542046681994  1.0000
  H   H221      1.0  0.34779817647758465  0.5198906171665203  0.03426074683825453  1.0000
  H   H222      1.0  0.31179411521145417  0.4869693641844695  0.059360858302601814  1.0000
  H   H223      1.0  0.25455891416246623  0.4765917747820395  0.9917594938958341  1.0000
  H   H224      1.0  0.2889567952096524  0.5088148658735215  0.9660961853206054  1.0000
  C   C353      1.0  0.8207230600346159  0.47437893400758724  0.3483723591816554  1.0000
  C   C354      1.0  0.8172155487530474  0.4907395907839646  0.37175629537529925  1.0000
  C   C355      1.0  0.7903095312965548  0.48733972065815684  0.3868295643502961  1.0000
  C   C356      1.0  0.7647172507533572  0.470141268391292  0.37790285054203165  1.0000
  C   C357      1.0  0.7696531411355086  0.4524028263300729  0.3546202639486152  1.0000
  C   C358      1.0  0.7976306114282622  0.4532689606248528  0.3408486418000683  1.0000
  H   H225      1.0  0.8353047741569554  0.5061641621536465  0.3792959107333926  1.0000
  H   H226      1.0  0.7881355424026818  0.5000354575370087  0.40593694486375625  1.0000
  H   H227      1.0  0.7510381478375854  0.4376296669371878  0.3478616366863918  1.0000
  H   H228      1.0  0.8004379384134263  0.43968374287478046  0.32248051719414916  1.0000
  C   C359      1.0  0.6976675135228251  0.47561942126354373  0.3535252908167466  1.0000
  C   C360      1.0  0.7016826680491339  0.4615775616685021  0.37795253171861365  1.0000
  C   C361      1.0  0.6768677608179431  0.44295123026461336  0.38733233785730653  1.0000
  C   C362      1.0  0.6526739041804744  0.4346239073065189  0.37103889918545424  1.0000
  C   C363      1.0  0.6507148657752464  0.44658820867141735  0.3458306701877172  1.0000
  C   C364      1.0  0.6722429214124211  0.4685585729783764  0.3376134035810446  1.0000
  C   C365      1.0  0.7328638760691134  0.4678288559782622  0.39442680987322465  1.0000
  C   C366      1.0  0.7225049949284434  0.5009268950070619  0.4080454139978989  1.0000
  C   C367      1.0  0.7027215061985422  0.5038781312908308  0.4304357266599015  1.0000
  C   C368      1.0  0.6926227457047955  0.532931026398201  0.43998444879897336  1.0000
  C   C369      1.0  0.7012000247349992  0.5609653520551823  0.4265566203923743  1.0000
  C   C370      1.0  0.7197485022005173  0.5583464151413808  0.40465318326087585  1.0000
  C   C371      1.0  0.7298827518729318  0.5296531231997373  0.3953906246989166  1.0000
  C   C372      1.0  0.7405309581491332  0.40847516421482827  0.40218104791415255  1.0000
  C   C373      1.0  0.7385564090711012  0.3814329960771925  0.41670981119381006  1.0000
  C   C374      1.0  0.7390146650922762  0.3824380161971123  0.44380791214872867  1.0000
  C   C375      1.0  0.7417108308157786  0.41234166298934505  0.455443243704247  1.0000
  C   C376      1.0  0.7431866765211091  0.4400904425725377  0.4406561383063628  1.0000
  C   C377      1.0  0.7401541900610896  0.43852232218632653  0.4135163051631152  1.0000
  C   C378      1.0  0.7306541424213814  0.3513499486373097  0.46034180771523814  1.0000
  C   C379      1.0  0.6281474131632844  0.3606886387857465  0.4562719257296358  1.0000
  C   C380      1.0  0.6439478532397275  0.34288053686926445  0.43801111246513397  1.0000
  C   C381      1.0  0.6761062098421222  0.3394463843954291  0.4387463938785484  1.0000
  C   C382      1.0  0.6930382668396762  0.3532398243407166  0.45904810987704125  1.0000
  C   C383      1.0  0.6763104066381812  0.37038971172622376  0.4780382428137678  1.0000
  C   C384      1.0  0.6447711545032246  0.3751215595913299  0.476625310151774  1.0000
  C   C385      1.0  0.7436408024262278  0.3492338452649675  0.4897252427929315  1.0000
  C   C386      1.0  0.768929796427509  0.3658054053590704  0.500158289875164  1.0000
  C   C387      1.0  0.776016042834641  0.3636557044692513  0.5265966248050729  1.0000
  C   C388      1.0  0.7603024860368344  0.3425053805722555  0.5424071624405475  1.0000
  C   C389      1.0  0.7376759829813883  0.32373698702170295  0.5319164851934798  1.0000
  C   C390      1.0  0.7288686174256792  0.32806170002268287  0.5062094571828588  1.0000
  C   C391      1.0  0.7317198623229056  0.2908403422958977  0.44672519083762724  1.0000
  C   C392      1.0  0.7462712049169977  0.26434243541859376  0.4362066921316735  1.0000
  C   C393      1.0  0.7756948381441938  0.26660849675901827  0.42535036142496185  1.0000
  C   C394      1.0  0.792010469398364  0.2951749876627288  0.4269043886284487  1.0000
  C   C395      1.0  0.7771421079343778  0.32114465983458124  0.438335033736449  1.0000
  C   C396      1.0  0.7457870821313128  0.32016209814392854  0.4474386125333456  1.0000
  H   H229      1.0  0.7144439915859241  0.4918655390977762  0.34485493187964555  1.0000
  H   H230      1.0  0.6780761738347325  0.43302447875488775  0.40721275747838354  1.0000
  H   H231      1.0  0.6344206377968368  0.4188675931016409  0.3787553795321798  1.0000
  H   H232      1.0  0.6710044347428276  0.4804115562888988  0.3183490305495851  1.0000
  H   H233      1.0  0.6951374767583112  0.48259989139439213  0.4409164676716528  1.0000
  H   H234      1.0  0.6791131470121416  0.5336912934567704  0.45775043754471795  1.0000
  H   H235      1.0  0.7257663223724631  0.5791151794148582  0.3928509229520417  1.0000
  H   H236      1.0  0.7440349965412826  0.5294591091575004  0.3777836157182347  1.0000
  H   H237      1.0  0.7385738357864218  0.40548927804668317  0.3810546243843975  1.0000
  H   H238      1.0  0.7350434592511804  0.35894191422673283  0.4062310574291221  1.0000
  H   H239      1.0  0.7395578469493359  0.41376917518625067  0.4771360326470375  1.0000
  H   H240      1.0  0.745296327588238  0.46236583342338766  0.45243057715631096  1.0000
  H   H241      1.0  0.6323417849184484  0.3307940238671044  0.4216183114401176  1.0000
  H   H242      1.0  0.6870601637472828  0.3280102973226961  0.4226198839600119  1.0000
  H   H243      1.0  0.6889043249616597  0.38253770986541624  0.4928949018588669  1.0000
  H   H244      1.0  0.6338963641699507  0.39040681992966897  0.4916608214325685  1.0000
  H   H245      1.0  0.7820534287388803  0.38203488619560055  0.48785524330638275  1.0000
  H   H246      1.0  0.7955169348932394  0.3768985683934652  0.5345674727758986  1.0000
  H   H247      1.0  0.7268517696344764  0.30512740603375  0.5438538783026171  1.0000
  H   H248      1.0  0.7098586545238929  0.3125901962447968  0.49915075561407984  1.0000
  H   H249      1.0  0.7084966270352988  0.28846294989338794  0.45587646356404266  1.0000
  H   H250      1.0  0.7332368110255563  0.2419416311676393  0.4358708473779788  1.0000
  H   H251      1.0  0.8149239853757223  0.29941500836913415  0.41921771698767246  1.0000
  H   H252      1.0  0.7903749331746012  0.34270702157303434  0.438827871008143  1.0000
  C   C397      1.0  0.7132134751260928  0.34474608959182085  0.706472292738078  1.0000
  C   C398      1.0  0.6886367599794927  0.35665845513852895  0.7214004926774552  1.0000
  C   C399      1.0  0.6891487242402874  0.38676883607024737  0.732193231478142  1.0000
  C   C400      1.0  0.7160322819513038  0.405010908766134  0.7300509791439236  1.0000
  C   C401      1.0  0.7412659250079311  0.39205772972049646  0.7164244260309962  1.0000
  C   C402      1.0  0.7400527927971241  0.3624984559623191  0.7045704972985167  1.0000
  H   H253      1.0  0.6673012970554061  0.34403046982940233  0.7239262836948873  1.0000
  H   H254      1.0  0.6673048346466862  0.39586287663753184  0.7402912632610177  1.0000
  H   H255      1.0  0.7620663879234111  0.40661754889748647  0.713185213317846  1.0000
  H   H256      1.0  0.759663601396704  0.3535892910064323  0.6930206173667195  1.0000
  C   C403      1.0  0.7664980810093621  0.42551737930059413  0.768506197065501  1.0000
  C   C404      1.0  0.7502989983245991  0.4486535050552885  0.7547604091287768  1.0000
  C   C405      1.0  0.7616567078118085  0.4795837596964238  0.7560064130374549  1.0000
  C   C406      1.0  0.7884165095636065  0.4869734540178133  0.7693289173496999  1.0000
  C   C407      1.0  0.8046592748840693  0.4633456238128187  0.7822817937081744  1.0000
  C   C408      1.0  0.7941717542136383  0.43207706054943495  0.7807237920105612  1.0000
  C   C409      1.0  0.7171595680998967  0.44087174359991627  0.741292835780912  1.0000
  C   C410      1.0  0.6949851656868733  0.4471981987957438  0.7663301615312067  1.0000
  C   C411      1.0  0.6811758167730458  0.4772689903160705  0.7692573764554217  1.0000
  C   C412      1.0  0.66463285706761  0.48533318103389056  0.7919835338711191  1.0000
  C   C413      1.0  0.6604646455831481  0.4640475758280092  0.8118997239393352  1.0000
  C   C414      1.0  0.6743933438960322  0.43442004659977956  0.8100158137233434  1.0000
  C   C415      1.0  0.6916833708111508  0.4269154457925196  0.7878878176736941  1.0000
  C   C416      1.0  0.7313577004642434  0.46638825214989515  0.696275728056376  1.0000
  C   C417      1.0  0.7248478550127251  0.46951317855027785  0.6698095716675813  1.0000
  C   C418      1.0  0.6944125177526046  0.46679271959872704  0.6604436762583313  1.0000
  C   C419      1.0  0.6707688013481283  0.46577420712606243  0.679715998278044  1.0000
  C   C420      1.0  0.6772145145339366  0.46106771510755823  0.7061205500078771  1.0000
  C   C421      1.0  0.7079666284665518  0.4593725841610519  0.7142086455554363  1.0000
  C   C422      1.0  0.6900394708079255  0.46170862088438147  0.6291922289411526  1.0000
  C   C423      1.0  0.7304973262184226  0.5544822507781199  0.6081015758585366  1.0000
  C   C424      1.0  0.7457655225759743  0.5270490344228975  0.600792481159784  1.0000
  C   C425      1.0  0.7325640428751455  0.4976849423471727  0.6056314277588767  1.0000
  C   C426      1.0  0.703168236828327  0.49490449683383103  0.6176940174330007  1.0000
  C   C427      1.0  0.6884855636854651  0.5234882407801983  0.6255237708623334  1.0000
  C   C428      1.0  0.7019106759761096  0.5529564107974542  0.6201899997444834  1.0000
  C   C429      1.0  0.6552763058486105  0.4532816506866878  0.6195322209665369  1.0000
  C   C430      1.0  0.6387683245879239  0.42792855403801516  0.6305097737441088  1.0000
  C   C431      1.0  0.6102783550699781  0.41850634236390827  0.6207345054398228  1.0000
  C   C432      1.0  0.5968631656496171  0.43559120702664245  0.600665297347734  1.0000
  C   C433      1.0  0.6127343962152122  0.460847998221064  0.5895486372757323  1.0000
  C   C434      1.0  0.6423683404968191  0.46844619487857914  0.5979288581415941  1.0000
  C   C435      1.0  0.7141314171615901  0.4257106993917819  0.5922850764818721  1.0000
  C   C436      1.0  0.7263879979388469  0.3977141249493648  0.5830741863435583  1.0000
  C   C437      1.0  0.7314552292900189  0.37318835282302293  0.600208230523179  1.0000
  C   C438      1.0  0.725376549339441  0.37729213899056135  0.6274335152901477  1.0000
  C   C439      1.0  0.7150581891042276  0.40637342124502646  0.6365828007694998  1.0000
  C   C440      1.0  0.7091789573065567  0.43132096527533326  0.6190314347065898  1.0000
  H   H257      1.0  0.7566911092373826  0.4017115547620118  0.769575335985547  1.0000
  H   H258      1.0  0.7484253465039644  0.49790687549373197  0.7465749384751166  1.0000
  H   H259      1.0  0.7956779446298543  0.5116181412691974  0.769259363702485  1.0000
  H   H260      1.0  0.805901573941369  0.41303536004562946  0.7900419934902922  1.0000
  H   H261      1.0  0.683801155950081  0.495579886809899  0.7546829064933087  1.0000
  H   H262      1.0  0.6528741130738244  0.5082303293041941  0.7930924177324307  1.0000
  H   H263      1.0  0.6714717686448457  0.4174264164693203  0.8258084661352486  1.0000
  H   H264      1.0  0.7036768789432419  0.40449095903895016  0.7879414733444028  1.0000
  H   H265      1.0  0.7554235195162619  0.4648167131024097  0.7017505937157191  1.0000
  H   H266      1.0  0.7440147903010367  0.46906644248164175  0.6558551227892124  1.0000
  H   H267      1.0  0.6465069636636872  0.46606237233873504  0.6734641190169576  1.0000
  H   H268      1.0  0.6591206100803491  0.4539631776219627  0.7199517895683225  1.0000
  H   H269      1.0  0.7684988054937992  0.5281605867925224  0.5917206983158999  1.0000
  H   H270      1.0  0.7468092154944813  0.4767354815638194  0.601495966620186  1.0000
  H   H271      1.0  0.666913558982879  0.5210648536740512  0.6367556912640053  1.0000
  H   H272      1.0  0.6911326302830352  0.5752486884208415  0.6261676389108368  1.0000
  H   H273      1.0  0.6483421059865975  0.4140490502377079  0.6469542431927706  1.0000
  H   H274      1.0  0.5983050412148412  0.3986291568713495  0.6302971383083376  1.0000
  H   H275      1.0  0.6027858129534934  0.47483145352958284  0.5736824567224857  1.0000
  H   H276      1.0  0.6549196468947557  0.4885949649749792  0.5886861720502677  1.0000
  H   H277      1.0  0.7075682337700226  0.4441200556458076  0.5789069292518552  1.0000
  H   H278      1.0  0.7290909496665463  0.39421849045980906  0.5620411634257775  1.0000
  H   H279      1.0  0.7266130399637128  0.35780090229737394  0.640940833579278  1.0000
  H   H280      1.0  0.7090794708415973  0.40713878463738346  0.6573117748865984  1.0000
  C   C441      1.0  0.6217285369409247  0.8318590156239571  0.3453239221865802  1.0000
  C   C442      1.0  0.6059907861036897  0.8260407772610106  0.3683898988500989  1.0000
  C   C443      1.0  0.6075384089987844  0.7965685688421142  0.37966156419303654  1.0000
  C   C444      1.0  0.6230370709658141  0.7718074442863293  0.36705049432944653  1.0000
  C   C445      1.0  0.6402034062421266  0.7787150009010189  0.3442627322547874  1.0000
  C   C446      1.0  0.6396188922983915  0.8087475931507335  0.33371045034875796  1.0000
  H   H281      1.0  0.5903849123711254  0.843630926041082  0.37813337120137236  1.0000
  H   H282      1.0  0.5934553097787438  0.7929080864484904  0.397546787762578  1.0000
  H   H283      1.0  0.6545261109694362  0.7604000406232462  0.33564006724720513  1.0000
  H   H284      1.0  0.6505532049689893  0.8127711723331867  0.31445998804674147  1.0000
  C   C447      1.0  0.6237335027158082  0.7049937215912685  0.33581295774171066  1.0000
  C   C448      1.0  0.6319387114988627  0.7062210214435951  0.36225725441280937  1.0000
  C   C449      1.0  0.646898177331215  0.6798559403376578  0.37274793165987713  1.0000
  C   C450      1.0  0.6558626069831507  0.6550134690049426  0.3571838126602495  1.0000
  C   C451      1.0  0.6492615870766583  0.6556330299887639  0.3305248933063163  1.0000
  C   C452      1.0  0.6327293580902623  0.6804639724580596  0.3195672129993772  1.0000
  C   C453      1.0  0.6242206811378299  0.7371063417866841  0.38031139398272984  1.0000
  C   C454      1.0  0.5915394576084593  0.7254880446922727  0.39280521626958625  1.0000
  C   C455      1.0  0.5897068330810867  0.7066075571143058  0.4150862303431083  1.0000
  C   C456      1.0  0.5619832043998358  0.6985022070770436  0.42649501573341253  1.0000
  C   C457      1.0  0.5343395050229929  0.7097933984392409  0.4157638815916877  1.0000
  C   C458      1.0  0.5356108824033339  0.7275086067533998  0.392894642387434  1.0000
  C   C459      1.0  0.5639567843831911  0.7350766865162082  0.38138252014983914  1.0000
  C   C460      1.0  0.6829615059151741  0.7404240383388999  0.39201826643252646  1.0000
  C   C461      1.0  0.7075598506179877  0.7433632926899221  0.4089376879293126  1.0000
  C   C462      1.0  0.7021878689722424  0.7506190890117281  0.43531640544732303  1.0000
  C   C463      1.0  0.6712149986723471  0.7561036458952421  0.4439609301726014  1.0000
  C   C464      1.0  0.6468248908865046  0.7529344428268617  0.42688849065194245  1.0000
  C   C465      1.0  0.6521451037681409  0.7437298614149616  0.40081978367580406  1.0000
  C   C466      1.0  0.7283495633358648  0.74653586663612  0.4571125312374043  1.0000
  C   C467      1.0  0.7153123496398892  0.642187297272881  0.46163153105930843  1.0000
  C   C468      1.0  0.7398083174960302  0.654411331444982  0.44658608354319745  1.0000
  C   C469      1.0  0.7448422906454425  0.6873929133375712  0.44679275723777884  1.0000
  C   C470      1.0  0.7251758387046405  0.7080387525584744  0.46028219030333967  1.0000
  C   C471      1.0  0.7003171485490262  0.695023715870438  0.47508121918360363  1.0000
  C   C472      1.0  0.6954005962566381  0.6622646938437894  0.4749917930657559  1.0000
  C   C473      1.0  0.7223425971741074  0.7672801284196676  0.48380920828553986  1.0000
  C   C474      1.0  0.7146051655433745  0.7996719272568014  0.48317726371941605  1.0000
  C   C475      1.0  0.7109899592791883  0.8173001092105455  0.5060107324765306  1.0000
  C   C476      1.0  0.7121786368310495  0.8029689266858978  0.5303227130487274  1.0000
  C   C477      1.0  0.7217626094980292  0.771508407604225  0.5311354970976099  1.0000
  C   C478      1.0  0.7269990784642506  0.7541661844894856  0.5086319113530001  1.0000
  C   C479      1.0  0.7886500295675715  0.7469165511423049  0.460981701269615  1.0000
  C   C480      1.0  0.8186832806575159  0.7543417946478708  0.4531499605932192  1.0000
  C   C481      1.0  0.823842896309872  0.7752475625648919  0.43240707574667764  1.0000
  C   C482      1.0  0.7983901265364336  0.7887978825550968  0.4199569728952135  1.0000
  C   C483      1.0  0.7684576185401264  0.7816704670287868  0.42847431380844175  1.0000
  C   C484      1.0  0.7627669146759742  0.7589418814831042  0.4480049779463811  1.0000
  H   H285      1.0  0.6101834444173099  0.7246312373338013  0.32752613748782317  1.0000
  H   H286      1.0  0.6523234021667709  0.678799290555877  0.3942082126962636  1.0000
  H   H287      1.0  0.6681731113016361  0.6341392000920931  0.36562166369094645  1.0000
  H   H288      1.0  0.6255470227634368  0.6807904974877893  0.29878060871744344  1.0000
  H   H289      1.0  0.610269086699922  0.6978619446932147  0.42486746038858425  1.0000
  H   H290      1.0  0.5617160791834301  0.6853547908259827  0.44438620104414384  1.0000
  H   H291      1.0  0.5141999969071017  0.7368568964628253  0.3848284065575707  1.0000
  H   H292      1.0  0.5635278475336506  0.7489097060012438  0.36330254636809595  1.0000
  H   H293      1.0  0.6875387684690931  0.7355296493981791  0.3711621085033778  1.0000
  H   H294      1.0  0.7303151788612602  0.7379163766797892  0.40130665920630826  1.0000
  H   H295      1.0  0.6651387621493573  0.7622615873128584  0.4640241765235004  1.0000
  H   H296      1.0  0.623375854338969  0.7568332364177753  0.4341021974916575  1.0000
  H   H297      1.0  0.7559316809249073  0.6386339978906492  0.4357993064837007  1.0000
  H   H298      1.0  0.7640265200126397  0.6956638431860253  0.43444797848066863  1.0000
  H   H299      1.0  0.6846697597140338  0.7104252697436226  0.4860249887610997  1.0000
  H   H300      1.0  0.6773975224729476  0.6517626642903718  0.4878731285299523  1.0000
  H   H301      1.0  0.7120580666216278  0.811436052841559  0.46454682250114365  1.0000
  H   H302      1.0  0.7065832988655838  0.8425515493347037  0.5050012109683831  1.0000
  H   H303      1.0  0.7240372168400908  0.7597436442802438  0.5496685632097814  1.0000
  H   H304      1.0  0.7352945154484036  0.7301226065177296  0.5109053219933951  1.0000
  H   H305      1.0  0.7857787639412562  0.7302333370602748  0.47756130351858006  1.0000
  H   H306      1.0  0.8381830119435439  0.744135948836945  0.46391686518208314  1.0000
  H   H307      1.0  0.8003587096126987  0.8056119875186842  0.40369930467050025  1.0000
  H   H308      1.0  0.7499537189385481  0.7937161920096572  0.4186116066333713  1.0000
  C   C485      1.0  0.755826938938151  0.7308474587018424  0.7359213069688598  1.0000
  C   C486      1.0  0.7453235789805502  0.7017348131666924  0.7445598699529483  1.0000
  C   C487      1.0  0.7141585611607053  0.6974053255062915  0.7509667544849706  1.0000
  C   C488      1.0  0.693438101278482  0.7230918841961292  0.750849506908237  1.0000
  C   C489      1.0  0.7051047853435893  0.7526368048098053  0.743397330420928  1.0000
  C   C490      1.0  0.7362008442893119  0.7564271969845036  0.736972560665336  1.0000
  H   H309      1.0  0.75957673560665  0.680439910868117  0.7452136742367682  1.0000
  H   H310      1.0  0.7056574511094355  0.6734495522750402  0.7553585704948248  1.0000
  H   H311      1.0  0.6892402998338623  0.7723561135597414  0.739224111588035  1.0000
  H   H312      1.0  0.7443393063045087  0.7783180998395713  0.7293673661541543  1.0000
  C   C491      1.0  0.6492657361038057  0.7698184626243273  0.7839888389355341  1.0000
  C   C492      1.0  0.6361314182670422  0.7466173928483608  0.7677907881227193  1.0000
  C   C493      1.0  0.6041096232289277  0.7490666452666849  0.7630571656179806  1.0000
  C   C494      1.0  0.5868443922775215  0.774861600418474  0.7725721045569768  1.0000
  C   C495      1.0  0.6009017930489025  0.79891946832176  0.786317892493701  1.0000
  C   C496      1.0  0.6320931001364677  0.7958044110963877  0.7924425879427373  1.0000
  C   C497      1.0  0.6562651196865067  0.7184523046277326  0.7536058185850096  1.0000
  C   C498      1.0  0.6466034846650695  0.6895685349854941  0.7720653565558397  1.0000
  C   C499      1.0  0.6224939395289854  0.668928955395314  0.7657220639298423  1.0000
  C   C500      1.0  0.6143419460451381  0.6441915616554391  0.7822241635433393  1.0000
  C   C501      1.0  0.6291828948335133  0.640389607107803  0.8058187479256911  1.0000
  C   C502      1.0  0.6528424781794236  0.6607377850721274  0.8128218065766981  1.0000
  C   C503      1.0  0.6611989649771629  0.6852983737981456  0.7962700257866192  1.0000
  C   C504      1.0  0.6406760496920525  0.7385782252239186  0.7066451832325835  1.0000
  C   C505      1.0  0.6387642764276079  0.7346882273725847  0.6796543936190823  1.0000
  C   C506      1.0  0.648330455331939  0.7067448536556548  0.6669141526963789  1.0000
  C   C507      1.0  0.6553460589332538  0.6810862563178558  0.6829532237441309  1.0000
  C   C508      1.0  0.6571505313370469  0.6846568261011106  0.7099658730753285  1.0000
  C   C509      1.0  0.6492133064301747  0.71310020045825  0.7225809174330451  1.0000
  C   C510      1.0  0.6483678567468318  0.7040538627438448  0.6358296341325158  1.0000
  C   C511      1.0  0.5491778714347885  0.6787508934126114  0.6307919628270949  1.0000
  C   C512      1.0  0.5583257998368057  0.7097922950495426  0.6293452469650254  1.0000
  C   C513      1.0  0.5895611451189847  0.7175808020518608  0.6296413467774544  1.0000
  C   C514      1.0  0.6123316122379158  0.6946414439871831  0.6330117177967813  1.0000
  C   C515      1.0  0.602774103091242  0.6634716739145966  0.6363423438748426  1.0000
  C   C516      1.0  0.571654082719987  0.6557101484300639  0.6354321847198593  1.0000
  C   C517      1.0  0.6718864480856879  0.6791461064872885  0.622678033067713  1.0000
  C   C518      1.0  0.7013410359888335  0.673970951697448  0.6328726105023516  1.0000
  C   C519      1.0  0.7216315694297543  0.652934829027732  0.6209670133462268  1.0000
  C   C520      1.0  0.7124362201934111  0.6352194682943424  0.5990238312734627  1.0000
  C   C521      1.0  0.6835847854427735  0.6414335692274235  0.5879707631074861  1.0000
  C   C522      1.0  0.6639341806971029  0.6638353898844462  0.5990218440263995  1.0000
  C   C523      1.0  0.6523793074811753  0.7459839598295351  0.5978811642120753  1.0000
  C   C524      1.0  0.6661753081073093  0.7723784494576533  0.5864187231510626  1.0000
  C   C525      1.0  0.6914290674915522  0.7869594683402223  0.5973406330108626  1.0000
  C   C526      1.0  0.7014974110028162  0.7757917455281536  0.6214618378649841  1.0000
  C   C527      1.0  0.6864469655948127  0.7509843690440581  0.6334687846213363  1.0000
  C   C528      1.0  0.6619102664680614  0.7356843390563286  0.6220043563132602  1.0000
  H   H313      1.0  0.6730332527852314  0.7665358051502209  0.7911051706691483  1.0000
  H   H314      1.0  0.5920423843785629  0.7303668858530292  0.7532143309135431  1.0000
  H   H315      1.0  0.5627830163946459  0.7769813746413541  0.7681465053470469  1.0000
  H   H316      1.0  0.6431077951270018  0.8148461301731503  0.8038831692860541  1.0000
  H   H317      1.0  0.6093444361798728  0.6717296028106312  0.7472764366884552  1.0000
  H   H318      1.0  0.5951742800511877  0.6278545917028261  0.7762942183065047  1.0000
  H   H319      1.0  0.6652582811572432  0.6563260525790948  0.8314323753243378  1.0000
  H   H320      1.0  0.6806921797550894  0.6998207318247639  0.8015123835395581  1.0000
  H   H321      1.0  0.6354414290930072  0.761424257037609  0.7159713337005679  1.0000
  H   H322      1.0  0.6337118979385477  0.7556402973862937  0.6681661183462468  1.0000
  H   H323      1.0  0.6623360624541195  0.6587093657492635  0.6749803885262421  1.0000
  H   H324      1.0  0.665524993600645  0.664650647448759  0.7213170283007975  1.0000
  H   H325      1.0  0.5396714246377786  0.7271323217360266  0.6282085416448278  1.0000
  H   H326      1.0  0.5964541386694533  0.742047222882192  0.6282065543977645  1.0000
  H   H327      1.0  0.6197715313089834  0.6452077116988088  0.639512002940778  1.0000
  H   H328      1.0  0.5636698314595897  0.6314350376179758  0.6384031190794665  1.0000
  H   H329      1.0  0.7088000404593272  0.6863096778935469  0.6502689712943256  1.0000
  H   H330      1.0  0.7441269469284505  0.6507015886428925  0.6295519206596067  1.0000
  H   H331      1.0  0.6763338591673383  0.6291591623579667  0.5698351464079711  1.0000
  H   H332      1.0  0.6431855128831849  0.6701883952746397  0.5884218681908512  1.0000
  H   H333      1.0  0.6353954373773814  0.7321250068798408  0.5868757899756175  1.0000
  H   H334      1.0  0.657796298284837  0.7810508365229779  0.5672775594375266  1.0000
  H   H335      1.0  0.7216207585202382  0.7863603267825457  0.6318511655118245  1.0000
  H   H336      1.0  0.6959519834257879  0.7428023452567944  0.6517415213682178  1.0000
  C   C529      1.0  0.27651737938376125  0.650708580505323  0.3382155394412191  1.0000
  C   C530      1.0  0.27241865628937906  0.6377748478240393  0.36251559653103615  1.0000
  C   C531      1.0  0.2980714173667083  0.6336440137823011  0.378862690873597  1.0000
  C   C532      1.0  0.32809905521893745  0.6402857539424016  0.3701088675598381  1.0000
  C   C533      1.0  0.3313402769851758  0.6533581952361439  0.34477544199711424  1.0000
  C   C534      1.0  0.3058762618456913  0.659220457437333  0.3291596545738413  1.0000
  H   H337      1.0  0.2496288029411879  0.632577206682792  0.3703691969251281  1.0000
  H   H338      1.0  0.2944388733877898  0.6260429922032127  0.3991822920956594  1.0000
  H   H339      1.0  0.3538356981971114  0.660836904104824  0.33600373345978585  1.0000
  H   H340      1.0  0.3102680766386715  0.6701292413477035  0.31029074370797505  1.0000
  C   C535      1.0  0.3975269176791445  0.619273603832116  0.3513035485999969  1.0000
  C   C536      1.0  0.3925384566464672  0.6344073400266184  0.375611554678067  1.0000
  C   C537      1.0  0.41852002138599365  0.6470251741721182  0.38828621644768213  1.0000
  C   C538      1.0  0.44743198428158626  0.6465221751151962  0.37630112940902605  1.0000
  C   C539      1.0  0.45068950555790727  0.6349858384061103  0.3503297975389886  1.0000
  C   C540      1.0  0.4260823375785127  0.6196466224672846  0.33870837671291315  1.0000
  C   C541      1.0  0.35783820761472546  0.6365713246274741  0.38886053084897065  1.0000
  C   C542      1.0  0.35803105377550465  0.6041381371757413  0.4046571577550024  1.0000
  C   C543      1.0  0.3742867664703316  0.6006569902953214  0.428440530608366  1.0000
  C   C544      1.0  0.37862428684032634  0.571249742659833  0.4401633010346688  1.0000
  C   C545      1.0  0.3661909231526591  0.5445400251410657  0.4282557166314807  1.0000
  C   C546      1.0  0.34992078763263823  0.5470302645687761  0.4050188367205198  1.0000
  C   C547      1.0  0.34758164414306103  0.5763205009845953  0.39290855311687695  1.0000
  C   C548      1.0  0.36057291230355626  0.6980716816295772  0.392803229022523  1.0000
  C   C549      1.0  0.3587500593721129  0.7266622213060221  0.40604028171104695  1.0000
  C   C550      1.0  0.35159795611415495  0.7269488389306513  0.4330529310422444  1.0000
  C   C551      1.0  0.34275487104371133  0.698337262509501  0.44464255591530727  1.0000
  C   C552      1.0  0.34242036530782344  0.670792758480732  0.4305370762601289  1.0000
  C   C553      1.0  0.35286811033096077  0.6690485104835073  0.404907550884976  1.0000
  C   C554      1.0  0.3593915796667397  0.7575169208393235  0.45109912162391175  1.0000
  C   C555      1.0  0.45921915747683356  0.7360267364403942  0.4514309918834799  1.0000
  C   C556      1.0  0.4481368502978091  0.7582557712938824  0.43427906248028963  1.0000
  C   C557      1.0  0.41696011777063846  0.7661698168781496  0.43444400398654204  1.0000
  C   C558      1.0  0.3964441185138829  0.7529035189525494  0.452754498427626  1.0000
  C   C559      1.0  0.4086790126310764  0.7310144716674292  0.47047478049091507  1.0000
  C   C560      1.0  0.4396456705931446  0.7223412268652679  0.4694573099945144  1.0000
  C   C561      1.0  0.3437547292767973  0.7607208735621129  0.47966778540565935  1.0000
  C   C562      1.0  0.31296267050608  0.7518016875934613  0.48333823073154186  1.0000
  C   C563      1.0  0.29850999921737464  0.7554421719537011  0.5075528361976378  1.0000
  C   C564      1.0  0.3144769884191295  0.7673755649180631  0.5293330640112127  1.0000
  C   C565      1.0  0.34478303426981044  0.7771343126966291  0.5256765294147732  1.0000
  C   C566      1.0  0.358944899490554  0.7746294672872853  0.5011658241362482  1.0000
  C   C567      1.0  0.36310132864543204  0.8186339060364993  0.4438436825958677  1.0000
  C   C568      1.0  0.3539813815768085  0.8468811653498992  0.43306882901875066  1.0000
  C   C569      1.0  0.32755695421708364  0.8476536387337466  0.41774119241965363  1.0000
  C   C570      1.0  0.30961301339779557  0.8205833233153226  0.4152273248846014  1.0000
  C   C571      1.0  0.31998991492193635  0.7923261632388691  0.42558286933136596  1.0000
  C   C572      1.0  0.3471065912455611  0.7905839492757489  0.43959097388044344  1.0000
  H   H341      1.0  0.37755928837952696  0.6091808982023875  0.3411109584124215  1.0000
  H   H342      1.0  0.4160230592858743  0.6587739233231906  0.40772745446777364  1.0000
  H   H343      1.0  0.46668322119549294  0.6584246801882077  0.3860823594545019  1.0000
  H   H344      1.0  0.4284312990367277  0.6080649696941265  0.31929098565758096  1.0000
  H   H345      1.0  0.38516165454527596  0.6213957721239727  0.43755007114645245  1.0000
  H   H346      1.0  0.39253179233968644  0.5688445196523766  0.4578100549566164  1.0000
  H   H347      1.0  0.34274806216903714  0.5249471276390989  0.39565294131126993  1.0000
  H   H348      1.0  0.33741497415850746  0.5773281464786463  0.3734335318967095  1.0000
  H   H349      1.0  0.36886233733711304  0.6985516904937807  0.3728751154719272  1.0000
  H   H350      1.0  0.36639112178683986  0.7480878446790502  0.39657899844275946  1.0000
  H   H351      1.0  0.3391834255402985  0.6975600187800051  0.4661604671165289  1.0000
  H   H352      1.0  0.33510409242377587  0.6498867841921683  0.44032426804679464  1.0000
  H   H353      1.0  0.4636518702398268  0.767895622535117  0.41902296677547074  1.0000
  H   H354      1.0  0.4075012806417078  0.7813298931705562  0.4187129562335987  1.0000
  H   H355      1.0  0.39217406462670457  0.7186786019440625  0.48337400117868096  1.0000
  H   H356      1.0  0.44845137008409985  0.7052226494117406  0.48328656230789657  1.0000
  H   H357      1.0  0.30020246434136627  0.7412439640275158  0.4665956742233878  1.0000
  H   H358      1.0  0.274563459370677  0.7477808446709141  0.5102892754037777  1.0000
  H   H359      1.0  0.35670206091495543  0.7887826293744041  0.5414353986266024  1.0000
  H   H360      1.0  0.3816086050447936  0.7855518451312546  0.49893812017830863  1.0000
  H   H361      1.0  0.38402925288020373  0.8194685989527002  0.4554949121278924  1.0000
  H   H362      1.0  0.369525614081075  0.8675979764763276  0.4359105923192445  1.0000
  H   H363      1.0  0.28789465965411315  0.8202108023747418  0.4045935658489774  1.0000
  H   H364      1.0  0.30647708246217076  0.7710847411809536  0.42202172259396387  1.0000
  C   C573      1.0  0.34782373140394324  0.7699041329792181  0.6940182153924873  1.0000
  C   C574      1.0  0.3727409591820803  0.7568100699171368  0.7073109109987832  1.0000
  C   C575      1.0  0.3687067510864748  0.7301460601222419  0.7224100141856028  1.0000
  C   C576      1.0  0.33999766546416543  0.7155069189417665  0.7251901728271347  1.0000
  C   C577      1.0  0.3147628727055101  0.72986589176725  0.7124042252219759  1.0000
  C   C578      1.0  0.3183096801545265  0.7562157669166057  0.6970428054228032  1.0000
  H   H365      1.0  0.39478174297041796  0.7688611347935134  0.7070028877039743  1.0000
  H   H366      1.0  0.3896426542156019  0.7206323566985636  0.7318017438066753  1.0000
  H   H367      1.0  0.29183506550028876  0.7185775922423857  0.7141092832022723  1.0000
  H   H368      1.0  0.29783599794798393  0.7663423502194755  0.6880107675201846  1.0000
  C   C579      1.0  0.28894732779977955  0.7018270746245476  0.7681147093940344  1.0000
  C   C580      1.0  0.3034833022473867  0.6777156105889245  0.7538323647502239  1.0000
  C   C581      1.0  0.28999795036715276  0.6477392001451742  0.7551201008472308  1.0000
  C   C582      1.0  0.2642672920217584  0.6418336429431925  0.7710439115653126  1.0000
  C   C583      1.0  0.24948402665434272  0.6668821840276363  0.7842074361124952  1.0000
  C   C584      1.0  0.2622933079396916  0.6973278943783394  0.7824765439203761  1.0000
  C   C585      1.0  0.3362353965102985  0.6816386630859188  0.7388962158225935  1.0000
  C   C586      1.0  0.3591041037199781  0.6742826263662888  0.762757091311425  1.0000
  C   C587      1.0  0.3716363251632622  0.6442397398091299  0.7655471861882736  1.0000
  C   C588      1.0  0.3954238185683507  0.6397448458621837  0.7831124629806265  1.0000
  C   C589      1.0  0.40463427954419545  0.6627520949449927  0.8003041373250824  1.0000
  C   C590      1.0  0.38892311134944235  0.6911570394775106  0.8004969002902208  1.0000
  C   C591      1.0  0.36686924366842516  0.6978294531113505  0.781496831118178  1.0000
  C   C592      1.0  0.3173842234424194  0.6560717223947929  0.6950098516770653  1.0000
  C   C593      1.0  0.3238738555137427  0.650013516223198  0.6686907515709533  1.0000
  C   C594      1.0  0.35452040282115166  0.6470919351151333  0.6592036340908433  1.0000
  C   C595      1.0  0.3774604759320662  0.6447382295437648  0.6781619710745572  1.0000
  C   C596      1.0  0.3716961199263091  0.6532790160518926  0.7037438025201913  1.0000
  C   C597      1.0  0.34174530220934374  0.6613321842431793  0.7124062124690392  1.0000
  C   C598      1.0  0.3631019235320947  0.6504490792011527  0.6281389879976129  1.0000
  C   C599      1.0  0.3200102238722154  0.5599040774269834  0.6053472514288273  1.0000
  C   C600      1.0  0.3052114267925849  0.5880534130721637  0.5992841606387528  1.0000
  C   C601      1.0  0.3193755731430292  0.6164877332725899  0.6054187923231055  1.0000
  C   C602      1.0  0.3482865141316263  0.617907055270112  0.6171216902787754  1.0000
  C   C603      1.0  0.36287366736796084  0.5887348681890531  0.622495206337891  1.0000
  C   C604      1.0  0.34900116373788054  0.5604320016180719  0.6164042940889305  1.0000
  C   C605      1.0  0.3984403052151124  0.6570422154420137  0.6217956953716156  1.0000
  C   C606      1.0  0.41321230885241694  0.6829232511445668  0.6338940554928787  1.0000
  C   C607      1.0  0.44385512718837233  0.6895214409564147  0.6294148006122402  1.0000
  C   C608      1.0  0.4603998249993112  0.6719097695670531  0.6112871329009784  1.0000
  C   C609      1.0  0.44662912391018783  0.6464289279922716  0.5983898994602757  1.0000
  C   C610      1.0  0.41588364569678093  0.6393314663850411  0.6031056367414448  1.0000
  C   C611      1.0  0.34464934497333166  0.6850763799784505  0.5890438765216586  1.0000
  C   C612      1.0  0.33510823833207454  0.7127708265236564  0.5776132314136583  1.0000
  C   C613      1.0  0.32623257939289463  0.7385604157350132  0.5928633653772873  1.0000
  C   C614      1.0  0.32930297237068334  0.7363077822312484  0.6199714025675224  1.0000
  C   C615      1.0  0.3394347600200057  0.7081886973639326  0.6317458414174705  1.0000
  C   C616      1.0  0.3477260106958027  0.6820462040386985  0.6161399902295139  1.0000
  H   H369      1.0  0.2999444971262881  0.7251415640895073  0.770314591893088  1.0000
  H   H370      1.0  0.30174888245155856  0.6282164917515938  0.7456150981435512  1.0000
  H   H371      1.0  0.2559257780773234  0.6178356047654178  0.7726237729806221  1.0000
  H   H372      1.0  0.251192058550861  0.7166378692960584  0.7933646705801004  1.0000
  H   H373      1.0  0.36538787613144774  0.6249056714860395  0.7528009835243803  1.0000
  H   H374      1.0  0.40672563963827685  0.616746912467157  0.7830011771450827  1.0000
  H   H375      1.0  0.39351454129078095  0.7093980064946775  0.8149362374520306  1.0000
  H   H376      1.0  0.3569013748642734  0.7210246716932837  0.779322782830947  1.0000
  H   H377      1.0  0.2937204406059897  0.6614283124552411  0.7012299349851391  1.0000
  H   H378      1.0  0.3051026569788825  0.647838439669721  0.6541123071147138  1.0000
  H   H379      1.0  0.40146637400275725  0.6422180684550175  0.6738893898885  1.0000
  H   H380      1.0  0.39024178535440524  0.6565100160010133  0.7178711418930658  1.0000
  H   H381      1.0  0.2819038700716779  0.5878139026097304  0.5925732273060481  1.0000
  H   H382      1.0  0.3048697107755274  0.6375799739169379  0.6033162849301527  1.0000
  H   H383      1.0  0.3852326057335183  0.5879579678208161  0.632777222643314  1.0000
  H   H384      1.0  0.360106277042891  0.538623761307739  0.6224296271848027  1.0000
  H   H385      1.0  0.4006342851717513  0.697223294103685  0.6485241683727637  1.0000
  H   H386      1.0  0.45488464430153186  0.7083708546700208  0.6398955416239915  1.0000
  H   H387      1.0  0.46047216051329987  0.6327296354703699  0.5837240161332516  1.0000
  H   H388      1.0  0.4050743681135435  0.6198552280549245  0.5923208469290112  1.0000
  H   H389      1.0  0.3516745257627332  0.6661584027833802  0.5757412446800463  1.0000
  H   H390      1.0  0.33322136820245  0.7132658368279815  0.5559701236474498  1.0000
  H   H391      1.0  0.3226499496210711  0.7566062642458147  0.6321313673477472  1.0000
  H   H392      1.0  0.34238661902426976  0.7086738285552117  0.6530193212299085  1.0000
  C   C617      1.0  0.44893136185097426  0.27568357318276043  0.35117040304675695  1.0000
  C   C618      1.0  0.46363681314871263  0.2774735264525446  0.3750392275238417  1.0000
  C   C619      1.0  0.46626601907943077  0.30720173853251376  0.387926524729228  1.0000
  C   C620      1.0  0.4544611586669852  0.3343798350084259  0.37594541218469846  1.0000
  C   C621      1.0  0.4378934910451182  0.3312259048418944  0.3528297543445978  1.0000
  C   C622      1.0  0.4359501489799118  0.3023468981323509  0.33997226584516077  1.0000
  H   H393      1.0  0.4743663042195662  0.2574425515801668  0.38442499540372443  1.0000
  H   H394      1.0  0.47906338919354047  0.30865944573677384  0.40658280015932297  1.0000
  H   H395      1.0  0.42715450779072384  0.35201828158091497  0.3442686939959772  1.0000
  H   H396      1.0  0.424719969334308  0.30113942521056664  0.3205608365310184  1.0000
  C   C623      1.0  0.4684830371360351  0.4010722292517576  0.3460532418588048  1.0000
  C   C624      1.0  0.45819835924525787  0.4008393081109748  0.37202854822296894  1.0000
  C   C625      1.0  0.44878949119070466  0.4295600736628589  0.3825728811407452  1.0000
  C   C626      1.0  0.44707351455224215  0.4565622749442264  0.36776789051929143  1.0000
  C   C627      1.0  0.45513111950186996  0.4555989917322978  0.34121628250677555  1.0000
  C   C628      1.0  0.46632192261661315  0.42758980257217416  0.3304434161767217  1.0000
  C   C629      1.0  0.4585654802115255  0.3688286548732907  0.38970908534499227  1.0000
  C   C630      1.0  0.49218574356780515  0.37352544193651027  0.40260631878569497  1.0000
  C   C631      1.0  0.49624285004676755  0.3927827956018811  0.4254874814723284  1.0000
  C   C632      1.0  0.5259390405255053  0.3981574444036085  0.43519319612939955  1.0000
  C   C633      1.0  0.5514679033583415  0.38393190910280445  0.42320016010249034  1.0000
  C   C634      1.0  0.547748263475363  0.3661788684507751  0.40023752028626236  1.0000
  C   C635      1.0  0.518677882116788  0.36166489689041487  0.39012839447534486  1.0000
  C   C636      1.0  0.3996715739436308  0.3749117459118255  0.39688702173756824  1.0000
  C   C637      1.0  0.37245089286213623  0.370925076284483  0.41121308581677096  1.0000
  C   C638      1.0  0.3733836941619564  0.3619864209614714  0.43776469382928695  1.0000
  C   C639      1.0  0.40212998870501004  0.35711250410347045  0.449165530231338  1.0000
  C   C640      1.0  0.42907443544068424  0.35820314990875957  0.43435259062163106  1.0000
  C   C641      1.0  0.42853631213086113  0.3671695874865383  0.4080374650096458  1.0000
  C   C642      1.0  0.3419945980441527  0.36152601034363746  0.454858993067642  1.0000
  C   C643      1.0  0.344123679063278  0.4656598828007048  0.46343992588689537  1.0000
  C   C644      1.0  0.3257642477146829  0.4517655083663834  0.44484128062163547  1.0000
  C   C645      1.0  0.3245209786721163  0.41900372962228133  0.44251023981640525  1.0000
  C   C646      1.0  0.3400608593636882  0.39921657382422904  0.4607213719043251  1.0000
  C   C647      1.0  0.35730294673712143  0.414228006620621  0.4801924186303659  1.0000
  C   C648      1.0  0.3593774726446193  0.4465616751137801  0.4819729919990669  1.0000
  C   C649      1.0  0.3432199985774493  0.3402345446240481  0.4804348627720863  1.0000
  C   C650      1.0  0.35648090217413303  0.3103228135934504  0.4784893478971329  1.0000
  C   C651      1.0  0.3587046223309148  0.2911601217196661  0.5002854736872141  1.0000
  C   C652      1.0  0.34639531793809064  0.300233918851519  0.5242278263056402  1.0000
  C   C653      1.0  0.32948637581899226  0.32856396712821967  0.5260938512980624  1.0000
  C   C654      1.0  0.3290601668879399  0.34917732754020564  0.5047647285678526  1.0000
  C   C655      1.0  0.2817840450858747  0.3567702853753611  0.45044134284596526  1.0000
  C   C656      1.0  0.25567590762697084  0.3506640095140449  0.4357178293541061  1.0000
  C   C657      1.0  0.25721982021860484  0.3324120224437879  0.4130413531149908  1.0000
  C   C658      1.0  0.28514201251757176  0.3194116531616657  0.4056825772396561  1.0000
  C   C659      1.0  0.3118470279310914  0.32618012617033304  0.42028486866065506  1.0000
  C   C660      1.0  0.3107542256923724  0.34758430188852224  0.4410496132248927  1.0000
  H   H397      1.0  0.47775159316288607  0.37970904671180983  0.336645614261226  1.0000
  H   H398      1.0  0.44399576728884205  0.4303164963093592  0.40339326862275476  1.0000
  H   H399      1.0  0.43783017185638  0.4784903959768007  0.3771337859285413  1.0000
  H   H400      1.0  0.4743994342801157  0.4258987428963346  0.31038613156701256  1.0000
  H   H401      1.0  0.47702492310066374  0.4057088053459015  0.43423733029196065  1.0000
  H   H402      1.0  0.5285747572829909  0.4129402777157035  0.45216826054395765  1.0000
  H   H403      1.0  0.568098341404097  0.3574401676809465  0.3895898505211954  1.0000
  H   H404      1.0  0.5162511504703927  0.34973702975768495  0.37137673118621223  1.0000
  H   H405      1.0  0.39815314719992273  0.3812889699113654  0.37651177759773397  1.0000
  H   H406      1.0  0.3507610938319749  0.3759978481931793  0.4014080088065357  1.0000
  H   H407      1.0  0.4048353227405969  0.3516164288391642  0.4693499986530972  1.0000
  H   H408      1.0  0.45148844381198466  0.3535204048646943  0.44362707266596996  1.0000
  H   H409      1.0  0.314821755800148  0.4660038220305203  0.4300184047766122  1.0000
  H   H410      1.0  0.31292743958453373  0.40786747113453625  0.4262823802976413  1.0000
  H   H411      1.0  0.3708726582878446  0.4004244365654845  0.4940296199320011  1.0000
  H   H412      1.0  0.3753075180117309  0.4566796529417222  0.4963884821961173  1.0000
  H   H413      1.0  0.36695661627107196  0.3015472274509778  0.4607531678573376  1.0000
  H   H414      1.0  0.37038268513602746  0.2689984827295572  0.4982326474708434  1.0000
  H   H415      1.0  0.3196962912013581  0.33678324687939587  0.5448256421165623  1.0000
  H   H416      1.0  0.317829546919731  0.3723478180693479  0.5079184896572817  1.0000
  H   H417      1.0  0.28002864059662536  0.37252868568944214  0.46707658801270213  1.0000
  H   H418      1.0  0.23482218719311412  0.36287399728682707  0.441832588567826  1.0000
  H   H419      1.0  0.28572972800471896  0.3037975189018495  0.388862518096034  1.0000
  H   H420      1.0  0.3331363592611985  0.31439516717224647  0.4138859331168858  1.0000
  C   C661      1.0  0.29740787857914786  0.38449107172339547  0.7048487118873764  1.0000
  C   C662      1.0  0.3037016531221782  0.4157131271147786  0.7105938431473257  1.0000
  C   C663      1.0  0.3313853193381163  0.4240591192938587  0.719906082885867  1.0000
  C   C664      1.0  0.35375771797356304  0.4014634004567684  0.7265872075126223  1.0000
  C   C665      1.0  0.34626101647395974  0.36946145433388106  0.7226564328214498  1.0000
  C   C666      1.0  0.31816942394206715  0.36152913557596994  0.7120544697388383  1.0000
  H   H421      1.0  0.28764008288517345  0.43372652471667167  0.7041233667092782  1.0000
  H   H422      1.0  0.33491352610883035  0.4495220744300397  0.7213329262773037  1.0000
  H   H423      1.0  0.36350480419374787  0.34981503069976444  0.7241210339070889  1.0000
  H   H424      1.0  0.31289011446501463  0.33720406294715183  0.7070326964099236  1.0000
  C   C667      1.0  0.3922168752808929  0.37560532703217137  0.772615823992369  1.0000
  C   C668      1.0  0.40753658463793624  0.3903820079629218  0.7515092729332468  1.0000
  C   C669      1.0  0.440271049393627  0.39116820791205037  0.7510223974027426  1.0000
  C   C670      1.0  0.456752940776112  0.379423087452322  0.7721905531208266  1.0000
  C   C671      1.0  0.44126010248811426  0.36710768301708246  0.7936766683690356  1.0000
  C   C672      1.0  0.4086797168599387  0.36549247897376597  0.7939409722284522  1.0000
  C   C673      1.0  0.38876004469947284  0.4128584069631988  0.7324356756198624  1.0000
  C   C674      1.0  0.39116633744271506  0.4454118823076335  0.7484787211617411  1.0000
  C   C675      1.0  0.4156343642646514  0.466406255069026  0.7445419847293787  1.0000
  C   C676      1.0  0.4168918660126217  0.49482916784820374  0.757310047110968  1.0000
  C   C677      1.0  0.39416145852545864  0.5023696246069531  0.7758093300230637  1.0000
  C   C678      1.0  0.3722156937932195  0.4794050563129343  0.7829773301803233  1.0000
  C   C679      1.0  0.3703241646608419  0.4519326348005436  0.7685896614421588  1.0000
  C   C680      1.0  0.4131269390705101  0.3889783109371981  0.689391904229166  1.0000
  C   C681      1.0  0.4155250101918827  0.38846897726559393  0.6622381603564753  1.0000
  C   C682      1.0  0.40781815456092224  0.41530997738473363  0.646852893592543  1.0000
  C   C683      1.0  0.4019183183603164  0.4433570069804345  0.6612187026130115  1.0000
  C   C684      1.0  0.39680430237816694  0.4427725421114623  0.6877742851196541  1.0000
  C   C685      1.0  0.40087767438973815  0.41506670302255366  0.7025633777646015  1.0000
  C   C686      1.0  0.40609799330218976  0.4140726577784946  0.6156014462753644  1.0000
  C   C687      1.0  0.5046487827785484  0.43611248175278283  0.6059732342537612  1.0000
  C   C688      1.0  0.49430554142305017  0.40502066834372963  0.6048206309570574  1.0000
  C   C689      1.0  0.4634267390273618  0.3984064042820672  0.6053889836171562  1.0000
  C   C690      1.0  0.4414068241540893  0.42200067413763  0.6080677926584609  1.0000
  C   C691      1.0  0.4511286075187782  0.45311332594378373  0.607668355998741  1.0000
  C   C692      1.0  0.48246972301853114  0.46045458122090527  0.6055837338293579  1.0000
  C   C693      1.0  0.37993564307569727  0.4376959141082323  0.604135030720225  1.0000
  C   C694      1.0  0.3513063742394887  0.44091419211977545  0.617048162137434  1.0000
  C   C695      1.0  0.3295466249707138  0.4621434407435702  0.6085546681889651  1.0000
  C   C696      1.0  0.33596721178088357  0.4814837935277189  0.5873030480942232  1.0000
  C   C697      1.0  0.3625733578157041  0.47812691660440837  0.57325519860388  1.0000
  C   C698      1.0  0.38470979815232176  0.4561030051262755  0.5813075237043003  1.0000
  C   C699      1.0  0.39822607722501396  0.37063464691025827  0.5791612968759552  1.0000
  C   C700      1.0  0.3873869036751932  0.342056814293845  0.5704134353033862  1.0000
  C   C701      1.0  0.3658664184198248  0.32515591356811385  0.5854350358547378  1.0000
  C   C702      1.0  0.35714223495840247  0.33629860150106344  0.6102915221222739  1.0000
  C   C703      1.0  0.3698223501335527  0.3641367990549575  0.6193533687308415  1.0000
  C   C704      1.0  0.39227435983429365  0.38100898415725754  0.6050451898752084  1.0000
  H   H425      1.0  0.3670866314335626  0.3763746482695847  0.7739214453129455  1.0000
  H   H426      1.0  0.4521875170503024  0.40270587034173005  0.7345918386835237  1.0000
  H   H427      1.0  0.4820716259875199  0.3821556814332266  0.7721209994736117  1.0000
  H   H428      1.0  0.3973854040170923  0.35706192836113865  0.8114088739147045  1.0000
  H   H429      1.0  0.43267724297897187  0.4623066839195791  0.7288844651177768  1.0000
  H   H430      1.0  0.43450824736474014  0.5121072544953764  0.7514496555213483  1.0000
  H   H431      1.0  0.3541473726881147  0.483961209149299  0.798070471625953  1.0000
  H   H432      1.0  0.35407314048745364  0.4331884511580238  0.7738121467244649  1.0000
  H   H433      1.0  0.4162448537432524  0.366997939884036  0.7004509341363324  1.0000
  H   H434      1.0  0.42309308405762525  0.367045971183744  0.6520714043807228  1.0000
  H   H435      1.0  0.3957591357401241  0.46452725449357796  0.6502709585413889  1.0000
  H   H436      1.0  0.3866481607270678  0.46332010564583476  0.6968182465046523  1.0000
  H   H437      1.0  0.5110015957354364  0.3856220581860562  0.6051604502048787  1.0000
  H   H438      1.0  0.4567611560610885  0.37332749774267265  0.6076166875750958  1.0000
  H   H439      1.0  0.43504639431800757  0.47236052971913406  0.6104286421696403  1.0000
  H   H440      1.0  0.4898600108092534  0.4845857525926051  0.6057605988179899  1.0000
  H   H441      1.0  0.3456502847777506  0.4259385247507461  0.6336257771393355  1.0000
  H   H442      1.0  0.30715513552352974  0.46214685440631925  0.617815239503861  1.0000
  H   H443      1.0  0.3668929214726821  0.4924011190669308  0.5555369037876543  1.0000
  H   H444      1.0  0.40579958082517875  0.45202681278918105  0.5703120857031588  1.0000
  H   H445      1.0  0.4134001894010223  0.3838304848619747  0.566478686118087  1.0000
  H   H446      1.0  0.3938900659363391  0.3348547206985093  0.5504137808585122  1.0000
  H   H447      1.0  0.3392622328289274  0.3241410428240102  0.6223779587611573  1.0000
  H   H448      1.0  0.36058279824980727  0.3738876826001482  0.637800983219292  1.0000
  C   C705      1.0  0.9345134612669537  0.3158167919118351  0.7456548430848168  1.0000
  C   C706      1.0  0.9502301093001586  0.3143143915199344  0.721631013336796  1.0000
  C   C707      1.0  0.9579842087301879  0.2857892948034476  0.7103752459703646  1.0000
  C   C708      1.0  0.9496201657038293  0.25702427049390075  0.7214760080658601  1.0000
  C   C709      1.0  0.9322205067199553  0.25865575576955846  0.7451818782837556  1.0000
  C   C710      1.0  0.9257051317100645  0.287556880072192  0.7577750629237762  1.0000
  H   H449      1.0  0.9588559593709963  0.3363620635911995  0.7132011112943522  1.0000
  H   H450      1.0  0.9709534731807112  0.2856482837795846  0.6910293958093107  1.0000
  H   H451      1.0  0.9247580577335027  0.23818593902304494  0.7553645322360145  1.0000
  H   H452      1.0  0.9139262496197827  0.28766120404150847  0.7773454720029811  1.0000
  C   C711      1.0  0.9667475795667487  0.18919491993076923  0.7455276592727668  1.0000
  C   C712      1.0  0.9541997704550437  0.1912717132706796  0.7203015450514602  1.0000
  C   C713      1.0  0.9433419599253455  0.16315648671761745  0.7088867979199661  1.0000
  C   C714      1.0  0.9426551057009226  0.13509300527994722  0.7223782182325903  1.0000
  C   C715      1.0  0.9525759037490132  0.1341869725390527  0.7483376266202479  1.0000
  C   C716      1.0  0.9652937741430223  0.16077009080892002  0.7595953812337428  1.0000
  C   C717      1.0  0.953322112295608  0.22421996688437093  0.7049321762640341  1.0000
  C   C718      1.0  0.9868756589521814  0.22050929425120472  0.6910115105857411  1.0000
  C   C719      1.0  0.9916682354482566  0.20534737382127993  0.6668426118021007  1.0000
  C   C720      1.0  0.021220690869497405  0.2038739932215325  0.6550423387403299  1.0000
  C   C721      1.0  0.04718783256169612  0.21362083602047544  0.6685397207941438  1.0000
  C   C722      1.0  0.04324945808206504  0.22610161024395448  0.6940062919101077  1.0000
  C   C723      1.0  0.013594760707472231  0.22939939767843737  0.705113015746793  1.0000
  C   C724      1.0  0.8936103330691053  0.22030452711967013  0.6977621888597114  1.0000
  C   C725      1.0  0.8669634695810134  0.22556746546002449  0.6834559972511415  1.0000
  C   C726      1.0  0.8677445348492986  0.23688408484815812  0.6577449947463939  1.0000
  C   C727      1.0  0.8971932034923934  0.24427912777374441  0.6474868254057302  1.0000
  C   C728      1.0  0.9238027491702699  0.23968755812721385  0.6618705196497682  1.0000
  C   C729      1.0  0.922410898041038  0.22756639458174371  0.6873430525069217  1.0000
  C   C730      1.0  0.8366454016503945  0.23593420332494597  0.641032246944189  1.0000
  C   C731      1.0  0.8391058222933663  0.13094199534453488  0.639293405763817  1.0000
  C   C732      1.0  0.8182505491945203  0.14676117859935459  0.6557418497066053  1.0000
  C   C733      1.0  0.8169008404017096  0.17924688427218932  0.6550284280108869  1.0000
  C   C734      1.0  0.8352099058884627  0.19767657270051153  0.6378725241135701  1.0000
  C   C735      1.0  0.8549153544108237  0.18061323676454413  0.6209550898638471  1.0000
  C   C736      1.0  0.8571412573552165  0.1479048456611051  0.6216049196535405  1.0000
  C   C737      1.0  0.8381658884694339  0.25570787314540183  0.6136976635887398  1.0000
  C   C738      1.0  0.8484898653000064  0.2869547966563426  0.6145005114023059  1.0000
  C   C739      1.0  0.8478508579636209  0.3055416309985418  0.5925354696118458  1.0000
  C   C740      1.0  0.8388768091494074  0.2927561327803526  0.5684619586872429  1.0000
  C   C741      1.0  0.8284819693880717  0.26137964902582816  0.5671762098372992  1.0000
  C   C742      1.0  0.8280185916736841  0.2433649176720266  0.5894651728990745  1.0000
  C   C743      1.0  0.7777421150599608  0.24357060372887765  0.6489096943030405  1.0000
  C   C744      1.0  0.7525006370771983  0.2543574033830454  0.6642154711844415  1.0000
  C   C745      1.0  0.7574264295979323  0.27521287910027925  0.684952394289793  1.0000
  C   C746      1.0  0.7873331433529469  0.2863434196366575  0.6901112876660741  1.0000
  C   C747      1.0  0.811979817781729  0.27630621096758895  0.6745551176546997  1.0000
  C   C748      1.0  0.8077378726082219  0.2531036202889971  0.6548475885281282  1.0000
  H   H453      1.0  0.9754028358835087  0.21004523313089873  0.7553168383064959  1.0000
  H   H454      1.0  0.9342781360574344  0.16341708697890464  0.6885214900154483  1.0000
  H   H455      1.0  0.9319516588836775  0.11484991337054713  0.7129586671526318  1.0000
  H   H456      1.0  0.9727712361668183  0.1616923477417278  0.7803561513038538  1.0000
  H   H457      1.0  0.971452864708138  0.1951596937470282  0.6564592458964502  1.0000
  H   H458      1.0  0.02393774713299135  0.19419250463999407  0.6352831411901131  1.0000
  H   H459      1.0  0.06273168343196528  0.23404174685422618  0.7058383609248909  1.0000
  H   H460      1.0  0.011264563184115062  0.24033560855667346  0.7248066341439214  1.0000
  H   H461      1.0  0.8917994829371759  0.2091355549881624  0.7166310997255776  1.0000
  H   H462      1.0  0.845118756990038  0.218562583392621  0.6930583750609219  1.0000
  H   H463      1.0  0.9013224036621047  0.2513651627684085  0.627189083901364  1.0000
  H   H464      1.0  0.9443696475235459  0.24894717628991866  0.6530829131359335  1.0000
  H   H465      1.0  0.8044635795379548  0.13377929729130708  0.6697042475732273  1.0000
  H   H466      1.0  0.8013025167539728  0.18939211916525261  0.6695273825845952  1.0000
  H   H467      1.0  0.8711491551513884  0.1933899974320403  0.6079724047994233  1.0000
  H   H468      1.0  0.8742820997352957  0.13630457424028947  0.6087394821658503  1.0000
  H   H469      1.0  0.8555456971924205  0.29757141039552637  0.6329521003848829  1.0000
  H   H470      1.0  0.8553454970225352  0.33020944172219535  0.5934476160138923  1.0000
  H   H471      1.0  0.8208840716906707  0.25056374825728417  0.5488836006197848  1.0000
  H   H472      1.0  0.8203463366139655  0.21894370122115772  0.5872056729881223  1.0000
  H   H473      1.0  0.774400833891693  0.22639356463566065  0.6327652991609344  1.0000
  H   H474      1.0  0.729864787053616  0.24593020448642508  0.6599826349396499  1.0000
  H   H475      1.0  0.7926297496346739  0.3022837330767472  0.7068478824330384  1.0000
  H   H476      1.0  0.8352328711811553  0.28556748922365327  0.6783288998278728  1.0000
  C   C749      1.0  0.8149995194389651  0.240330529548835  0.3648804205363422  1.0000
  C   C750      1.0  0.8349541739567399  0.21465450688783122  0.35968774395998526  1.0000
  C   C751      1.0  0.8635029045308548  0.22005644438329613  0.348179596216517  1.0000
  C   C752      1.0  0.8747467622443053  0.25041128413461305  0.3442627322547874  1.0000
  C   C753      1.0  0.8545767965420651  0.2759897425955469  0.35021652445638146  1.0000
  C   C754      1.0  0.8254156951953265  0.27140384654017163  0.3600772443843886  1.0000
  H   H477      1.0  0.8279162787415277  0.1895372619864191  0.3649102292422914  1.0000
  H   H478      1.0  0.8791312659721329  0.20023709745902696  0.3447615312676713  1.0000
  H   H479      1.0  0.8624317995486455  0.3006035983444515  0.34835248671102254  1.0000
  H   H480      1.0  0.8121618815139201  0.2923429547499963  0.3648168286303171  1.0000
  C   C755      1.0  0.9008730215837245  0.3040511254095181  0.307419171701532  1.0000
  C   C756      1.0  0.9199235550908856  0.29000661508017234  0.32634372548517016  1.0000
  C   C757      1.0  0.9475626561881815  0.30494139149968275  0.332289568698511  1.0000
  C   C758      1.0  0.9550814528002003  0.33383655801414996  0.3206681478724356  1.0000
  C   C759      1.0  0.9358224289008035  0.34719507155775375  0.3022364313604915  1.0000
  C   C760      1.0  0.9078479440387424  0.3323036130700269  0.29635020555904906  1.0000
  C   C761      1.0  0.9111130555602723  0.2561558595609958  0.3387163257011663  1.0000
  C   C762      1.0  0.9278237341387968  0.23344705599679086  0.31764355784211984  1.0000
  C   C763      1.0  0.9594207159907338  0.22458200275673282  0.3189829623627722  1.0000
  C   C764      1.0  0.9718147567311742  0.20063094955916272  0.3036672492460548  1.0000
  C   C765      1.0  0.9531591278949981  0.18565893958769833  0.2851540556045161  1.0000
  C   C766      1.0  0.9235813374601152  0.19727400236323897  0.28043235658215715  1.0000
  C   C767      1.0  0.9113472507187819  0.2211281532713642  0.2960640419819364  1.0000
  C   C768      1.0  0.9189561532275737  0.2753336327541094  0.3884094257656056  1.0000
  C   C769      1.0  0.9208631207824212  0.2679039138992206  0.41522136314341157  1.0000
  C   C770      1.0  0.9271075507977101  0.23722457428181545  0.42341080829119826  1.0000
  C   C771      1.0  0.9345244886137976  0.21487372232925947  0.4040470729065747  1.0000
  C   C772      1.0  0.931737128765591  0.22119001279071665  0.3778273351536269  1.0000
  C   C773      1.0  0.9233018830764663  0.2514118555758738  0.36886087640409676  1.0000
  C   C774      1.0  0.9283294708738399  0.22852662358852688  0.4546344341494911  1.0000
  C   C775      1.0  0.021822838409477407  0.265370932273193  0.46871010509872024  1.0000
  C   C776      1.0  0.9955826779375397  0.2833425074267395  0.47478909386530105  1.0000
  C   C777      1.0  0.9667598049849904  0.2717172695885966  0.4698368741836014  1.0000
  C   C778      1.0  0.961744713176063  0.24138048376050772  0.4605246344450601  1.0000
  C   C779      1.0  0.9882367867971342  0.2228735006050964  0.45495438092667956  1.0000
  C   C780      1.0  0.018182374349542396  0.23454852128046835  0.45862283900549883  1.0000
  C   C781      1.0  0.922495229185798  0.19168486571716567  0.4613036352938668  1.0000
  C   C782      1.0  0.9010986151133951  0.17363167022696052  0.4470590483442587  1.0000
  C   C783      1.0  0.8959423814517622  0.1413669965681928  0.4525359012506649  1.0000
  C   C784      1.0  0.9135275611481887  0.1273091325101135  0.47189764938822526  1.0000
  C   C785      1.0  0.9326908946179664  0.1454668509319125  0.4877181232590163  1.0000
  C   C786      1.0  0.9360929594610138  0.17774299906390137  0.4825731406121782  1.0000
  C   C787      1.0  0.9060584505944004  0.2504213805947829  0.4991070361786876  1.0000
  C   C788      1.0  0.8844624530218227  0.26806970495507343  0.5133635466106754  1.0000
  C   C789      1.0  0.8563159559885068  0.2777775575482453  0.5026642084219631  1.0000
  C   C790      1.0  0.8503806730285933  0.2684039082820524  0.4769989125996711  1.0000
  C   C791      1.0  0.8720678409978674  0.25187062122792947  0.46221379444885013  1.0000
  C   C792      1.0  0.901429357177578  0.24455795823272392  0.4719413688236174  1.0000
  H   H481      1.0  0.8803004314211642  0.2921141762126891  0.30075394505128283  1.0000
  H   H482      1.0  0.9644907401913233  0.29371507043365075  0.344914549291544  1.0000
  H   H483      1.0  0.977294870749293  0.34535232966507606  0.32529247178869375  1.0000
  H   H484      1.0  0.8921527265930069  0.34287697646318605  0.28234408825703483  1.0000
  H   H485      1.0  0.9735954278093011  0.23276822356691867  0.33503395689290405  1.0000
  H   H486      1.0  0.9951027266424146  0.1929103038420147  0.30754238101945547  1.0000
  H   H487      1.0  0.9090790504421851  0.18542284342850554  0.26621956558556154  1.0000
  H   H488      1.0  0.8869903376487774  0.2287862308718983  0.2940330754832618  1.0000
  H   H489      1.0  0.9102460458660052  0.29795947346230095  0.38268615422335234  1.0000
  H   H490      1.0  0.9157293023094655  0.2866117699332127  0.42921356971598285  1.0000
  H   H491      1.0  0.9435831376260163  0.19105580466284525  0.40902313955303377  1.0000
  H   H492      1.0  0.932752053213078  0.2008760947587728  0.364548550276774  1.0000
  H   H493      1.0  0.9972696069597021  0.30741461632252254  0.481241685079779  1.0000
  H   H494      1.0  0.9467790337890735  0.2872457676804161  0.4732171814382447  1.0000
  H   H495      1.0  0.9862582225666695  0.1993842620203744  0.4465006319194763  1.0000
  H   H496      1.0  0.038661133770486744  0.21983387387981332  0.4532970168759021  1.0000
  H   H497      1.0  0.8871513566278268  0.1846165974820619  0.43111337790848075  1.0000
  H   H498      1.0  0.8807086629585383  0.12878072302029459  0.4392908995738878  1.0000
  H   H499      1.0  0.9456960942233453  0.13498143123076214  0.5039002760953247  1.0000
  H   H500      1.0  0.950585389077511  0.19196897873640728  0.4951802359816416  1.0000
  H   H501      1.0  0.9273246013636126  0.2445076641778541  0.5090512204833527  1.0000
  H   H502      1.0  0.8900168253567504  0.2740187287979043  0.533571861997194  1.0000
  H   H503      1.0  0.8291176885310393  0.2757838097007504  0.4680702115443433  1.0000
  H   H504      1.0  0.867119686840991  0.2457141666293211  0.4420134280505847  1.0000
  C   C793      1.0  0.13487552530835353  0.7895495029285677  0.7779654930867251  1.0000
  C   C794      1.0  0.1165065221188321  0.7859604876616135  0.7561475075789478  1.0000
  C   C795      1.0  0.10666980213998176  0.8123345733521165  0.7426620490075135  1.0000
  C   C796      1.0  0.11699077730399045  0.8427284842633616  0.749772418999938  1.0000
  C   C797      1.0  0.13431915594828545  0.8455609398940995  0.77296160498138  1.0000
  C   C798      1.0  0.14314294275038555  0.8192273187323216  0.7864351400704347  1.0000
  H   H505      1.0  0.11005754651064902  0.7629767921599023  0.7491066912337384  1.0000
  H   H506      1.0  0.09217773267770887  0.809859367629947  0.7252259432742739  1.0000
  H   H507      1.0  0.14291530257537538  0.868486581905631  0.7795135585490222  1.0000
  H   H508      1.0  0.1570818775311231  0.8222184090798631  0.8039865061333447  1.0000
  C   C799      1.0  0.09504393302664751  0.9122367981317296  0.7704040180109357  1.0000
  C   C800      1.0  0.11092232551126985  0.9081089662758844  0.7464258949453704  1.0000
  C   C801      1.0  0.1217288793201257  0.9350876778001096  0.7338605317642358  1.0000
  C   C802      1.0  0.11635232952031663  0.9648397242278248  0.7438325375277869  1.0000
  C   C803      1.0  0.10155942730365695  0.9684829479545288  0.7677371324520108  1.0000
  C   C804      1.0  0.09169914100643797  0.9421581051592104  0.7818227396365562  1.0000
  C   C805      1.0  0.11191260300785526  0.8738043114437761  0.7320978436191043  1.0000
  C   C806      1.0  0.07839311297256481  0.8771502154348312  0.7186163595417967  1.0000
  C   C807      1.0  0.07447882603537538  0.896465853807013  0.6965042614686535  1.0000
  C   C808      1.0  0.04600479359968168  0.8990722435888671  0.6844476335357194  1.0000
  C   C809      1.0  0.020268734106278607  0.8837599081241878  0.6947733692765345  1.0000
  C   C810      1.0  0.023316689021644965  0.866144460460485  0.7175810038218265  1.0000
  C   C811      1.0  0.05200256035605255  0.8630894858346402  0.7292381950950411  1.0000
  C   C812      1.0  0.1699688223207722  0.8800760704601865  0.7174677307392194  1.0000
  C   C813      1.0  0.19373387636312223  0.8785522249163981  0.6989088304152252  1.0000
  C   C814      1.0  0.18891617237793462  0.8656021025683112  0.6737323973705007  1.0000
  C   C815      1.0  0.15990904289071445  0.8533164797789797  0.6688139608888768  1.0000
  C   C816      1.0  0.13606318996542044  0.8549265056583186  0.6874225423894531  1.0000
  C   C817      1.0  0.14008158881799346  0.8698344771764946  0.7114881043258028  1.0000
  C   C818      1.0  0.2159411135100162  0.8697443576647449  0.6522105116751525  1.0000
  C   C819      1.0  0.19427157352398233  0.9716961477344188  0.644050875233315  1.0000
  C   C820      1.0  0.22066896040138836  0.9622564449990537  0.6574588311692813  1.0000
  C   C821      1.0  0.22912018112465746  0.9304659401335753  0.6585021358775046  1.0000
  C   C822      1.0  0.2110350056238343  0.9069852579190277  0.6465846152390001  1.0000
  C   C823      1.0  0.18472908524852488  0.9173665638540288  0.6331130673970087  1.0000
  C   C824      1.0  0.1768096784434088  0.9489988672254672  0.6312192209457007  1.0000
  C   C825      1.0  0.21374032482176716  0.8481515220516328  0.6263087334523298  1.0000
  C   C826      1.0  0.20884179660697502  0.8154443068921496  0.6272109436190602  1.0000
  C   C827      1.0  0.20818339498143634  0.79727614132766  0.6045881230506535  1.0000
  C   C828      1.0  0.2134017246974916  0.8108196531984391  0.5805384590908099  1.0000
  C   C829      1.0  0.21857214202457556  0.8428771743725034  0.579117577440563  1.0000
  C   C830      1.0  0.22063924579698474  0.8605496826180312  0.6014363492082876  1.0000
  C   C831      1.0  0.2768120310775878  0.8705145230276783  0.6492753477626844  1.0000
  C   C832      1.0  0.3061619955556698  0.8622498875266797  0.6585756640188459  1.0000
  C   C833      1.0  0.3092484283242451  0.8414135929104349  0.6793662427949063  1.0000
  C   C834      1.0  0.283744437294823  0.8300765593080924  0.6911088856918419  1.0000
  C   C835      1.0  0.25451852202724623  0.8373131088277408  0.6821404396952484  1.0000
  C   C836      1.0  0.2499580964393347  0.8598554961848746  0.6622182878858426  1.0000
  H   H509      1.0  0.08635525405210644  0.8920932309706273  0.7808052691401556  1.0000
  H   H510      1.0  0.13506195783624697  0.9324929359315488  0.7156513869233794  1.0000
  H   H511      1.0  0.12374687013076843  0.984663459234815  0.7319348893599152  1.0000
  H   H512      1.0  0.0808480886111377  0.9440742000481883  0.800554530455056  1.0000
  H   H513      1.0  0.09443591418955713  0.9088283232673856  0.6880306399908176  1.0000
  H   H514      1.0  0.04387029437791212  0.9127742519573884  0.6663915067187356  1.0000
  H   H515      1.0  0.003548765350660288  0.8556604382137395  0.7277497470446426  1.0000
  H   H516      1.0  0.05243854855987973  0.8504477739307247  0.7475109318419226  1.0000
  H   H517      1.0  0.17412548681096102  0.891479278318627  0.7365850474879961  1.0000
  H   H518      1.0  0.21596658927028953  0.8888109931596064  0.7035053328725975  1.0000
  H   H519      1.0  0.15399329483281973  0.8421313812453612  0.6505909053185774  1.0000
  H   H520      1.0  0.11384825215921487  0.8444501586096411  0.6823769220957792  1.0000
  H   H521      1.0  0.2350595652212236  0.9800278530516426  0.6675679569801987  1.0000
  H   H522      1.0  0.24965355331786998  0.924761187771775  0.6704931846573505  1.0000
  H   H523      1.0  0.17023001339494284  0.9006116205475379  0.6238107638937839  1.0000
  H   H524      1.0  0.1564285753936335  0.9550971251974557  0.62032115805066  1.0000
  H   H525      1.0  0.2061111577377955  0.8051006536015174  0.6464315972151273  1.0000
  H   H526      1.0  0.2040774209800193  0.7724462586677251  0.6058758591476604  1.0000
  H   H527      1.0  0.22446847852227048  0.8531999365873295  0.5599843627152802  1.0000
  H   H528      1.0  0.22749916087453037  0.8848358816651984  0.598701897249211  1.0000
  H   H529      1.0  0.27525909465442294  0.8868940758910159  0.6329401769025033  1.0000
  H   H530      1.0  0.326154217391038  0.8726577795652397  0.6480710760423353  1.0000
  H   H531      1.0  0.2858024020580755  0.8150863652404073  0.7087457033784732  1.0000
  H   H532      1.0  0.23449133228260308  0.8260329691361844  0.6912817761863475  1.0000
  C   C837      1.0  0.2810092918394653  0.8738340518955656  0.3633959469800702  1.0000
  C   C838      1.0  0.26233071709438105  0.9000850526496718  0.35879149553444495  1.0000
  C   C839      1.0  0.23241501839881365  0.8961708299832518  0.3499502333499016  1.0000
  C   C840      1.0  0.2193977846086918  0.8664136580850181  0.34502186063296125  1.0000
  C   C841      1.0  0.23877062086806689  0.8401691314087539  0.34842998934649055  1.0000
  C   C842      1.0  0.2693620135348195  0.8443181958465815  0.3567148223533148  1.0000
  H   H533      1.0  0.2717552270528462  0.92358330338288  0.361374916716712  1.0000
  H   H534      1.0  0.21896394314046758  0.9174610369348914  0.3482153666636561  1.0000
  H   H535      1.0  0.23083125436328875  0.8167247402087882  0.3460592035999947  1.0000
  H   H536      1.0  0.2831494915386434  0.8225160707716785  0.3593042052767718  1.0000
  C   C843      1.0  0.1904735065459493  0.816905279352546  0.3055312869914137  1.0000
  C   C844      1.0  0.17219186276248258  0.8303699600313118  0.3258866586606152  1.0000
  C   C845      1.0  0.14409454781971545  0.8163587770165677  0.33205706079210695  1.0000
  C   C846      1.0  0.13550769992004488  0.7878349328475374  0.32062840293116995  1.0000
  C   C847      1.0  0.15500127172122274  0.7735181518692086  0.3019860382305179  1.0000
  C   C848      1.0  0.18190514510487285  0.7884928077716797  0.29399333054199617  1.0000
  C   C849      1.0  0.18312943279146507  0.8626112294437848  0.3401411818455397  1.0000
  C   C850      1.0  0.16875893529466754  0.8880572959744764  0.3200540885298814  1.0000
  C   C851      1.0  0.13919793596041732  0.8997920223124664  0.3242451925863439  1.0000
  C   C852      1.0  0.12705817474395378  0.9237002824256523  0.30895730092851253  1.0000
  C   C853      1.0  0.14414398377764215  0.9359106947641457  0.28819056911721164  1.0000
  C   C854      1.0  0.1733007265499433  0.92352903302065  0.2824454378572622  1.0000
  C   C855      1.0  0.18527736685887586  0.8993915108904926  0.29804930179815553  1.0000
  C   C856      1.0  0.1729807063657174  0.84167663369969  0.38852667334233926  1.0000
  C   C857      1.0  0.16565195198828314  0.8466294591407149  0.4153922663908538  1.0000
  C   C858      1.0  0.15983010416265767  0.8768783373443313  0.42548350697820175  1.0000
  C   C859      1.0  0.15887253879049382  0.9012455664852109  0.40781091884443155  1.0000
  C   C860      1.0  0.16599106312281678  0.8967452204981312  0.38157528311497746  1.0000
  C   C861      1.0  0.17219467868253888  0.8665833066344183  0.37128929231542784  1.0000
  C   C862      1.0  0.15188801186353384  0.8820317854069538  0.45603544332910523  1.0000
  C   C863      1.0  0.05048525390193004  0.8654499458608216  0.4575060061559341  1.0000
  C   C864      1.0  0.07052424066072592  0.8403523552302727  0.4623429655079635  1.0000
  C   C865      1.0  0.10215044580785225  0.8454565114660546  0.4613354312468793  1.0000
  C   C866      1.0  0.11452173559664514  0.8751420743600309  0.45532997062164  1.0000
  C   C867      1.0  0.09449860280925801  0.8989604906927054  0.4478082404871161  1.0000
  C   C868      1.0  0.0627283823446122  0.894014138681654  0.44887737940716205  1.0000
  C   C869      1.0  0.1606598288740485  0.9169151920814239  0.46733294288386557  1.0000
  C   C870      1.0  0.18752081209939808  0.9324898497444748  0.458461871993373  1.0000
  C   C871      1.0  0.1921308182374852  0.9639733125606537  0.46442957492441  1.0000
  C   C872      1.0  0.17200704328268104  0.9804239110398693  0.4807905799964139  1.0000
  C   C873      1.0  0.14616258608541485  0.9649451590809395  0.4908321394071798  1.0000
  C   C874      1.0  0.14204892569350064  0.9329256301949606  0.4856732460308987  1.0000
  C   C875      1.0  0.159000981318433  0.8534343241264573  0.5010962704890333  1.0000
  C   C876      1.0  0.175513406004434  0.8352322573173437  0.518814565305259  1.0000
  C   C877      1.0  0.20483302270166154  0.8241638917175661  0.5122248540434147  1.0000
  C   C878      1.0  0.21925114260902434  0.8347346613984068  0.48908336199149127  1.0000
  C   C879      1.0  0.20255662106033956  0.853233098497122  0.4718280957410103  1.0000
  C   C880      1.0  0.17140419274742372  0.8617507206473932  0.4767584557050139  1.0000
  H   H537      1.0  0.21198300340597634  0.8276817754164796  0.2988720220823544  1.0000
  H   H538      1.0  0.12800339146131923  0.8264055152095533  0.34724757734383754  1.0000
  H   H539      1.0  0.11218122980731593  0.7788982366263095  0.3252666375768711  1.0000
  H   H540      1.0  0.1967197644757106  0.7782137198871133  0.27901147493191025  1.0000
  H   H541      1.0  0.12450945865351541  0.8903253355784951  0.34008752617483107  1.0000
  H   H542      1.0  0.10392089130971117  0.9327036772460989  0.31341072159732836  1.0000
  H   H543      1.0  0.18597742753175867  0.9316969106459388  0.2649258677473647  1.0000
  H   H544      1.0  0.2086664863595052  0.8892245616143395  0.293999292283186  1.0000
  H   H545      1.0  0.17827584758654597  0.8176087472718369  0.38053396565381753  1.0000
  H   H546      1.0  0.16683039561726543  0.8273223803667246  0.42861540834993483  1.0000
  H   H547      1.0  0.15287556789306317  0.9252426483559536  0.41446024751817445  1.0000
  H   H548      1.0  0.16656694406323902  0.9180736459559625  0.36965378798234644  1.0000
  H   H549      1.0  0.061609361923845404  0.8168772893198457  0.4673051214249796  1.0000
  H   H550      1.0  0.11719052582053412  0.826629595867466  0.4655782037269872  1.0000
  H   H551      1.0  0.10279043652905466  0.9216168555029487  0.44019112249355474  1.0000
  H   H552      1.0  0.04772277087032051  0.9135995209357677  0.44428286419685314  1.0000
  H   H553      1.0  0.20265012178125968  0.9206892571544218  0.44384964433705765  1.0000
  H   H554      1.0  0.21149551908693462  0.9757781505717582  0.4549285467148569  1.0000
  H   H555      1.0  0.12792168789538239  0.9766690797908273  0.5013844213132093  1.0000
  H   H556      1.0  0.12061150483649537  0.9217618181218673  0.4943694391798224  1.0000
  H   H557      1.0  0.13528302028720018  0.8613423492984399  0.5058040587819492  1.0000
  H   H558      1.0  0.165171971024075  0.8290221030471847  0.5377530298183402  1.0000
  H   H559      1.0  0.24320545635332028  0.8272385854578523  0.4835508661673131  1.0000
  H   H560      1.0  0.2130182928309372  0.8596471111910777  0.453064508969498  1.0000
  C   C881      1.0  0.7653328216115504  0.9469026805566495  0.7641461770086595  1.0000
  C   C882      1.0  0.7628870588743408  0.962033673093046  0.7403329954493466  1.0000
  C   C883      1.0  0.7896625921965037  0.9677206567630059  0.7259930206407009  1.0000
  C   C884      1.0  0.81935669532033  0.9583181238844753  0.7345163232951191  1.0000
  C   C885      1.0  0.8204148046483318  0.9422891522439325  0.7592277405270355  1.0000
  C   C886      1.0  0.7937514425916852  0.937673217980598  0.7736054730298836  1.0000
  H   H561      1.0  0.7407192565432834  0.9662944150607763  0.7310763986285773  1.0000
  H   H562      1.0  0.7876577245007438  0.9778861936152571  0.7061583077020794  1.0000
  H   H563      1.0  0.8421198377235182  0.9356775884960987  0.767127047603583  1.0000
  H   H564      1.0  0.7970807732622078  0.9274419034936899  0.7925002181075725  1.0000
  C   C887      1.0  0.885825662780077  0.9764074942472902  0.7560322472492774  1.0000
  C   C888      1.0  0.8813729187675843  0.9614816604508499  0.7314241668646517  1.0000
  C   C889      1.0  0.9073755165077604  0.9467826901632244  0.720335328251536  1.0000
  C   C890      1.0  0.9344011727709994  0.9427553570633216  0.7335505212223639  1.0000
  C   C891      1.0  0.9369051154462164  0.9539489538224891  0.7592615237271113  1.0000
  C   C892      1.0  0.9119076602442744  0.9701268075001095  0.7707557607411366  1.0000
  C   C893      1.0  0.8490844348015016  0.9619378126546768  0.71550035614657  1.0000
  C   C894      1.0  0.8529543179477754  0.995037590154533  0.7009815291022288  1.0000
  C   C895      1.0  0.8721216920105005  0.9997277965752852  0.6786448721109347  1.0000
  C   C896      1.0  0.8768715930260734  0.028902454049277937  0.667822324604299  1.0000
  C   C897      1.0  0.8617903987544784  0.05552282919890769  0.6777287512147616  1.0000
  C   C898      1.0  0.8421107739344514  0.05161355496316216  0.699757384911247  1.0000
  C   C899      1.0  0.8385388597731902  0.022278717441422957  0.7110052032894251  1.0000
  C   C900      1.0  0.8453938761928158  0.9005795209205494  0.7081236950476657  1.0000
  C   C901      1.0  0.8446370334827016  0.8734309941316242  0.6925754740245443  1.0000
  C   C902      1.0  0.8416095779952564  0.8752519549683704  0.6654654495872461  1.0000
  C   C903      1.0  0.8368893646840617  0.9054902891118382  0.6542832103621561  1.0000
  C   C904      1.0  0.8384570152049073  0.9322915212890371  0.6703322176452245  1.0000
  C   C905      1.0  0.8438437166659658  0.9311395347420087  0.6972633898468275  1.0000
  C   C906      1.0  0.8479588030233385  0.8436198189527234  0.6477213205591975  1.0000
  C   C907      1.0  0.949914908363682  0.8525921659684892  0.6543527640093708  1.0000
  C   C908      1.0  0.9339779562647407  0.832505180967088  0.6712085936001321  1.0000
  C   C909      1.0  0.9021580941975058  0.8286356062446872  0.6684562564174861  1.0000
  C   C910      1.0  0.8854629155973258  0.8441181703945282  0.6484367295019792  1.0000
  C   C911      1.0  0.9030822249996957  0.8634711552473727  0.6312987108282319  1.0000
  C   C912      1.0  0.9345779572454782  0.8670768856246773  0.6338205273515373  1.0000
  C   C913      1.0  0.8327789341629113  0.8445761744728912  0.6185942403526676  1.0000
  C   C914      1.0  0.8035396126948853  0.8581447440873884  0.6147568662734694  1.0000
  C   C915      1.0  0.7893506896127672  0.8562585374236982  0.5907568834902079  1.0000
  C   C916      1.0  0.8032856466684171  0.8411000266960618  0.5695847532779974  1.0000
  C   C917      1.0  0.8325558612487468  0.8269974728071953  0.5730922443446909  1.0000
  C   C918      1.0  0.8465789600709299  0.8278149727797758  0.5974121739051407  1.0000
  C   C919      1.0  0.8445614743653972  0.7825033084970133  0.6543209680563584  1.0000
  C   C920      1.0  0.8319241964203902  0.7556748883936015  0.6661649605535214  1.0000
  C   C921      1.0  0.805367026528909  0.7582217719277554  0.6803439683500413  1.0000
  C   C922      1.0  0.7906104950538229  0.7873963891050141  0.6818960083064648  1.0000
  C   C923      1.0  0.8031437929933061  0.8142171117124815  0.6710615373174492  1.0000
  C   C924      1.0  0.8317964509416644  0.812600044664133  0.6590247818551478  1.0000
  H   H565      1.0  0.8664562492102253  0.988505362610354  0.7657836685888041  1.0000
  H   H566      1.0  0.9063841538513613  0.9361740373208903  0.7005502964894965  1.0000
  H   H567      1.0  0.9541781291284431  0.9303725908999586  0.7243595035546828  1.0000
  H   H568      1.0  0.9129343793730726  0.9806364675820731  0.7907196447388716  1.0000
  H   H569      1.0  0.8854884763059868  0.9790989172484188  0.6706581261636029  1.0000
  H   H570      1.0  0.8917414980990548  0.02991076083190425  0.6502689712943256  1.0000
  H   H571      1.0  0.8292978576439612  0.07169219305404767  0.7084277438483478  1.0000
  H   H572      1.0  0.8228135189674329  0.021410472840219574  0.727731861821073  1.0000
  H   H573      1.0  0.8506782323154447  0.8975168847374607  0.7288069624823087  1.0000
  H   H574      1.0  0.8489940886901857  0.8508562810252956  0.7010073633140516  1.0000
  H   H575      1.0  0.8335403288474368  0.908254781854421  0.6332303149737424  1.0000
  H   H576      1.0  0.8339130401780066  0.9541393039194348  0.6608768961181269  1.0000
  H   H577      1.0  0.944467095987993  0.8204778283262874  0.6875179302484906  1.0000
  H   H578      1.0  0.8909659544469113  0.8133134468633727  0.6831082290150671  1.0000
  H   H579      1.0  0.8917252712287215  0.8761965659412778  0.6152457290510368  1.0000
  H   H580      1.0  0.947435050421693  0.8831453146632903  0.6202317319328123  1.0000
  H   H581      1.0  0.7902181069393381  0.8694413311082253  0.6299752042840859  1.0000
  H   H582      1.0  0.7667093474292511  0.8666891004983148  0.5884477024026739  1.0000
  H   H583      1.0  0.8449311467332822  0.8146101358751335  0.5573770945682537  1.0000
  H   H584      1.0  0.868183939082648  0.8155152032027321  0.5994371786626255  1.0000
  H   H585      1.0  0.8661486289279029  0.7791529948946886  0.6423676769707148  1.0000
  H   H586      1.0  0.8435535028306467  0.7334963372265207  0.6637146849244941  1.0000
  H   H587      1.0  0.7688179815199926  0.7885102110391475  0.6924701499301904  1.0000
  H   H588      1.0  0.7904561668174637  0.8364186816127814  0.6730209629218455  1.0000
  C   C925      1.0  0.8699192004423285  0.841337870145655  0.4125425541021069  1.0000
  C   C926      1.0  0.8969773627929359  0.8501345426197341  0.3996333971790245  1.0000
  C   C927      1.0  0.8974753384309617  0.8754098666859167  0.38224299812824036  1.0000
  C   C928      1.0  0.8713459014710465  0.8942472786423432  0.37887461435597675  1.0000
  C   C929      1.0  0.8434959324204565  0.8851354402317337  0.3917281283612872  1.0000
  C   C930      1.0  0.8432288667764798  0.8595947620704564  0.4086574860933898  1.0000
  H   H589      1.0  0.9187469291139317  0.8382801735264661  0.40412060104791614  1.0000
  H   H590      1.0  0.9202326781713726  0.8814794034544722  0.3742423414514655  1.0000
  H   H591      1.0  0.8228516717275318  0.8993776317584429  0.39133465344275725  1.0000
  H   H592      1.0  0.8209302736196805  0.8534824385078309  0.4185003207978275  1.0000
  C   C931      1.0  0.8274708320672863  0.9188214855139344  0.33636342517823997  1.0000
  C   C932      1.0  0.8452459187414696  0.940712283607821  0.3502264606916978  1.0000
  C   C933      1.0  0.8357524259882461  0.9720410664456947  0.35041922365683625  1.0000
  C   C934      1.0  0.8103686721087152  0.9818487336121269  0.3363892593900626  1.0000
  C   C935      1.0  0.7932657256354951  0.9601326711333915  0.3222599327701248  1.0000
  C   C936      1.0  0.8012359757212094  0.9279022618680549  0.3227726425124517  1.0000
  C   C937      1.0  0.873972421409137  0.9293837860395645  0.3665497080694994  1.0000
  C   C938      1.0  0.9005314029200528  0.9322234260421447  0.34495429423280966  1.0000
  C   C939      1.0  0.9192111652066149  0.9597312597637493  0.34508545253898626  1.0000
  C   C940      1.0  0.946055001071519  0.9605526407497217  0.3299426299167746  1.0000
  C   C941      1.0  0.9539808775137623  0.9361959513847259  0.3128105729842171  1.0000
  C   C942      1.0  0.9341095760452789  0.9106777341851743  0.31059280526159394  1.0000
  C   C943      1.0  0.9079168034296929  0.9087780326952957  0.32713663706341983  1.0000
  C   C944      1.0  0.8532730197470071  0.9560568201918199  0.4103625440736861  1.0000
  C   C945      1.0  0.856535682252522  0.9572706407507492  0.43729769076941555  1.0000
  C   C946      1.0  0.8846407382615097  0.949616377553209  0.44912379804300906  1.0000
  C   C947      1.0  0.9112558632171531  0.9491054901173297  0.43302113508923185  1.0000
  C   C948      1.0  0.9081602586208791  0.9475111362716088  0.4058813019459843  1.0000
  C   C949      1.0  0.8788729682113494  0.9477845281247258  0.39446059307330045  1.0000
  C   C950      1.0  0.8863673052354053  0.9414081419859514  0.4801447247008471  1.0000
  C   C951      1.0  0.8957906057984654  0.04285698873970545  0.4993355695909651  1.0000
  C   C952      1.0  0.8668077364581813  0.02773660042150916  0.502191243620902  1.0000
  C   C953      1.0  0.8642740201766829  0.9951503468769133  0.4971654957978608  1.0000
  C   C954      1.0  0.8902901033522059  0.97690923358724  0.49071489183044614  1.0000
  C   C955      1.0  0.9190148625376793  0.9926020378742637  0.4896874850987291  1.0000
  C   C956      1.0  0.9220861408755354  0.024654827747938146  0.49446283979179667  1.0000
  C   C957      1.0  0.9152055744936499  0.9172699294452417  0.48653968575048984  1.0000
  C   C958      1.0  0.9206171505161944  0.8903278864099827  0.47047478049091507  1.0000
  C   C959      1.0  0.9471449409182192  0.8716436775361355  0.47247395103657713  1.0000
  C   C960      1.0  0.9699423167817445  0.880866901520488  0.4901008324878918  1.0000
  C   C961      1.0  0.9638036939056932  0.9051570298648343  0.5079940050456865  1.0000
  C   C962      1.0  0.9358402940775746  0.9219836478915051  0.5067559501252615  1.0000
  C   C963      1.0  0.8504883709166222  0.9169166509635382  0.5163503789467889  1.0000
  C   C964      1.0  0.8312507467279596  0.8937312742602139  0.5258533944034053  1.0000
  C   C965      1.0  0.8190830189081528  0.871133931658661  0.5089816668361379  1.0000
  C   C966      1.0  0.824661298237979  0.8734762335410772  0.4824558930354445  1.0000
  C   C967      1.0  0.8446349654935738  0.8966477826428582  0.47302640572016963  1.0000
  C   C968      1.0  0.8575221937334563  0.9192480207919096  0.4896119697103244  1.0000
  H   H593      1.0  0.8341083531619706  0.8942232001514019  0.3355069216939652  1.0000
  H   H594      1.0  0.8479577112964022  0.9914579299452027  0.3597851190660861  1.0000
  H   H595      1.0  0.8042813445003096  0.006982762766486017  0.33602360593041863  1.0000
  H   H596      1.0  0.7882021547122126  0.9111287720637329  0.31063851194404946  1.0000
  H   H597      1.0  0.9145751781168794  0.9787788622778342  0.35888092165229263  1.0000
  H   H598      1.0  0.9609484330682424  0.9816567325575937  0.33183448912101937  1.0000
  H   H599      1.0  0.9397777417443176  0.8916620000445618  0.29620116202930286  1.0000
  H   H600      1.0  0.8935308620863378  0.8874667933643612  0.325660112495401  1.0000
  H   H601      1.0  0.8299324383976522  0.9572350779847641  0.403464809517033  1.0000
  H   H602      1.0  0.8348562368260009  0.9588523805118784  0.4490383464192879  1.0000
  H   H603      1.0  0.9347469118589621  0.946435485067587  0.4411907077663858  1.0000
  H   H604      1.0  0.9289139342113555  0.9418726226746148  0.3937571076128985  1.0000
  H   H605      1.0  0.8464034309272047  0.042876782823352055  0.5056351427815703  1.0000
  H   H606      1.0  0.8408854105744985  0.9869603504365662  0.4967422121733816  1.0000
  H   H607      1.0  0.9410154709304968  0.981022027468033  0.4839940222624251  1.0000
  H   H608      1.0  0.945345651274005  0.03635440343729046  0.4929227233177529  1.0000
  H   H609      1.0  0.9045299815134831  0.8860675435961525  0.45430256388992296  1.0000
  H   H610      1.0  0.9508551420975953  0.8524944532142684  0.45845591025218313  1.0000
  H   H611      1.0  0.9805564821879983  0.9109987362537697  0.5234686979274664  1.0000
  H   H612      1.0  0.9297605767598778  0.9399891093678685  0.521650366864563  1.0000
  H   H613      1.0  0.8627899785866364  0.9315578782605937  0.5302750191192086  1.0000
  H   H614      1.0  0.8275706335106419  0.8933524223782315  0.5470255246156158  1.0000
  H   H615      1.0  0.814819807542618  0.8565767942520499  0.46820534434464656  1.0000
  H   H616      1.0  0.8500701756777134  0.8976589868354428  0.45190991842573097  1.0000
  C   C969      1.0  0.3128968736173388  0.13428220357513465  0.7398282346952729  1.0000
  C   C970      1.0  0.3083694418668688  0.1177750907390758  0.7165496225959831  1.0000
  C   C971      1.0  0.27987628320900665  0.11961150195908962  0.7037060448259889  1.0000
  C   C972      1.0  0.2554794462949885  0.13765302998399448  0.7144212809912075  1.0000
  C   C973      1.0  0.26169484830633266  0.15608049267054488  0.7363982462640474  1.0000
  C   C974      1.0  0.2897294088188493  0.1542028704756945  0.7490669462924727  1.0000
  H   H617      1.0  0.3263618685796757  0.10330063852838794  0.7076248960347818  1.0000
  H   H618      1.0  0.27637066564415  0.1083137573427781  0.684705975653946  1.0000
  H   H619      1.0  0.2444594691130665  0.17193998998189305  0.7455654169669691  1.0000
  H   H620      1.0  0.29261486340854054  0.16848356668952486  0.7665328607316616  1.0000
  C   C975      1.0  0.18848500017281522  0.14126961045631786  0.7440531219518113  1.0000
  C   C976      1.0  0.1925220346323775  0.1510772317718332  0.7178174862223572  1.0000
  C   C977      1.0  0.16778295567987805  0.1675596099004097  0.7062218996081044  1.0000
  C   C978      1.0  0.1420449001116587  0.17690132882794604  0.7206393770522181  1.0000
  C   C979      1.0  0.13916454027678762  0.16786578658624857  0.7469266812053176  1.0000
  C   C980      1.0  0.161671207144489  0.14904982918964768  0.7577949353944089  1.0000
  C   C981      1.0  0.22269894137434668  0.14144748758430895  0.6998050788407656  1.0000
  C   C982      1.0  0.21031423578470604  0.10851673036527083  0.6884598853564865  1.0000
  C   C983      1.0  0.19168737955185156  0.10667865138864865  0.66609143241218  1.0000
  C   C984      1.0  0.1773487000847786  0.07860857553516264  0.6594222312678042  1.0000
  C   C985      1.0  0.18049342752665792  0.05214147014019785  0.6750181462204444  1.0000
  C   C986      1.0  0.1981592935388694  0.053532274582091095  0.6972236449055618  1.0000
  C   C987      1.0  0.21242758722410532  0.08183953603776295  0.7040220171090509  1.0000
  C   C988      1.0  0.23092905737323774  0.20063869874291868  0.6888354750514468  1.0000
  C   C989      1.0  0.2336289819235169  0.22658929949971965  0.6718643851310152  1.0000
  C   C990      1.0  0.23262333116153255  0.22170751611168582  0.6447762204114131  1.0000
  C   C991      1.0  0.2361035995760383  0.19075669466401352  0.6356925140851494  1.0000
  C   C992      1.0  0.23649853804055496  0.16516580503631856  0.6528205965235802  1.0000
  C   C993      1.0  0.2307070928874013  0.16985855480578363  0.6796305466543228  1.0000
  C   C994      1.0  0.2244496355309817  0.2506100496692194  0.6255038983917005  1.0000
  C   C995      1.0  0.12325138818585132  0.2413196276426834  0.6355235980847703  1.0000
  C   C996      1.0  0.13890409875724383  0.2606751558589945  0.6522383331340383  1.0000
  C   C997      1.0  0.17074455235563518  0.26501711568951464  0.6488282171734459  1.0000
  C   C998      1.0  0.18732576269327567  0.24965518285264962  0.6282761080449795  1.0000
  C   C999      1.0  0.17002012996019147  0.2308582260243874  0.6110208417944984  1.0000
  C   C1000     1.0  0.13861923403764512  0.22628784594305487  0.6149118715444054  1.0000
  C   C1001     1.0  0.2399016923103092  0.2466351395256979  0.5964722060442081  1.0000
  C   C1002     1.0  0.2702621856061422  0.2347745476164399  0.593163439683843  1.0000
  C   C1003     1.0  0.28449358659924484  0.2326789280611803  0.5690144133708354  1.0000
  C   C1004     1.0  0.2695709774883824  0.24409599752389557  0.5470612950627549  1.0000
  C   C1005     1.0  0.24053882417965142  0.25819473426758716  0.549525481421225  1.0000
  C   C1006     1.0  0.22625875875410797  0.25982577083195146  0.5738911176641304  1.0000
  C   C1007     1.0  0.22392744543140858  0.3127690339675134  0.6276878829142478  1.0000
  C   C1008     1.0  0.23559591618553682  0.34119849086160486  0.6356289221791243  1.0000
  C   C1009     1.0  0.264004346293412  0.3426344033764863  0.6487725742556739  1.0000
  C   C1010     1.0  0.2804339946477433  0.3148731125852928  0.6529100226414278  1.0000
  C   C1011     1.0  0.26844796312608954  0.28630866195831084  0.6443847327399465  1.0000
  C   C1012     1.0  0.2393642354464658  0.28448538137392476  0.6332700599150081  1.0000
  H   H621      1.0  0.2053933165978513  0.1269523683441513  0.7542894315747788  1.0000
  H   H622      1.0  0.1688740882584682  0.17498604485690344  0.6853538181965761  1.0000
  H   H623      1.0  0.12573935109911696  0.19409557624660784  0.7120644059741547  1.0000
  H   H624      1.0  0.15892757806039054  0.14237333625382625  0.7783569807581918  1.0000
  H   H625      1.0  0.18518750627974379  0.12776256275696157  0.6551794587876963  1.0000
  H   H626      1.0  0.16315422307062485  0.07835824471067136  0.6419920872757544  1.0000
  H   H627      1.0  0.20145521739251554  0.032768339267037705  0.7089742367907506  1.0000
  H   H628      1.0  0.22396707270136962  0.083795167169902  0.722636560350817  1.0000
  H   H629      1.0  0.22766670691521482  0.20579531245658614  0.7092743110973062  1.0000
  H   H630      1.0  0.23136785121991416  0.25016907549983436  0.6801591543731559  1.0000
  H   H631      1.0  0.23713655209958615  0.18560760342356133  0.6150549533329617  1.0000
  H   H632      1.0  0.2391199136976617  0.1416396983011059  0.6448914807410835  1.0000
  H   H633      1.0  0.12718551779613463  0.2725522988575336  0.6683429833348788  1.0000
  H   H634      1.0  0.18326976653420937  0.2798022123898862  0.6632357583822431  1.0000
  H   H635      1.0  0.18176804782350836  0.21704002245198611  0.5957866058073756  1.0000
  H   H636      1.0  0.1257801263662176  0.2111617612463018  0.6015675075144642  1.0000
  H   H637      1.0  0.28337470691068256  0.22695023460284525  0.6099040089449338  1.0000
  H   H638      1.0  0.30732297470489667  0.2221744147464305  0.5681161776982318  1.0000
  H   H639      1.0  0.22880490865609174  0.2696134009861332  0.5331326803962086  1.0000
  H   H640      1.0  0.20481319863527597  0.2738953395233763  0.5766355058585233  1.0000
  H   H641      1.0  0.20230611717257221  0.31330196279055594  0.6172965680203443  1.0000
  H   H642      1.0  0.2221670628666844  0.3630015561218953  0.632818954831643  1.0000
  H   H643      1.0  0.3027834911935244  0.31589396402642317  0.6634901260063433  1.0000
  H   H644      1.0  0.28146861330996015  0.26466108733658905  0.6465389085565445  1.0000
  C   C1013     1.0  0.2068200617013494  0.27323495228316674  0.37966951318128966  1.0000
  C   C1014     1.0  0.17974165413737392  0.2674095761098668  0.3655958294791238  1.0000
  C   C1015     1.0  0.1778791070574148  0.24292058341728115  0.3471978961672555  1.0000
  C   C1016     1.0  0.20330828935988426  0.22266587857268066  0.3439070150304599  1.0000
  C   C1017     1.0  0.2316233289242028  0.23194997487343988  0.3557529947746862  1.0000
  C   C1018     1.0  0.2333460060653977  0.25617930651845305  0.37361238413240494  1.0000
  H   H645      1.0  0.15830876304816904  0.2813578590533481  0.36948487198196744  1.0000
  H   H646      1.0  0.15538721824507462  0.23862328096822563  0.3390740301725571  1.0000
  H   H647      1.0  0.25209312582388355  0.21659156377678546  0.35456462103084324  1.0000
  H   H648      1.0  0.2536677775915964  0.2601400822931181  0.3851920727701514  1.0000
  C   C1019     1.0  0.2455340199173457  0.1949844803876488  0.3008155497102446  1.0000
  C   C1020     1.0  0.2293883573369055  0.17510307675937498  0.3182914003847499  1.0000
  C   C1021     1.0  0.2399849915173601  0.14425831525281269  0.32157830702741896  1.0000
  C   C1022     1.0  0.2667494910180254  0.13479208456957945  0.30959719448288947  1.0000
  C   C1023     1.0  0.2845106504090115  0.1552183714290764  0.29440667793115893  1.0000
  C   C1024     1.0  0.2733375913068778  0.18497783572716964  0.28999896394479857  1.0000
  C   C1025     1.0  0.19849049208451303  0.18685000305855975  0.33341236328926555  1.0000
  C   C1026     1.0  0.17372160167030193  0.17986278063755085  0.3107537722737198  1.0000
  C   C1027     1.0  0.16040191941859747  0.14987129711181968  0.3105411368379486  1.0000
  C   C1028     1.0  0.1346494794432668  0.1432735712753189  0.29590108772274726  1.0000
  C   C1029     1.0  0.12218025279086958  0.1668153634457437  0.2801163842990953  1.0000
  C   C1030     1.0  0.13683101908311293  0.1959200341966133  0.2776521979406251  1.0000
  C   C1031     1.0  0.16300362947980598  0.20173093040189563  0.2925009079974711  1.0000
  C   C1032     1.0  0.21139796372798156  0.16240849703047452  0.37932571943934185  1.0000
  C   C1033     1.0  0.20378189195099874  0.1596123520840963  0.4058872636871742  1.0000
  C   C1034     1.0  0.1743299028813259  0.168195527137935  0.41580163928589003  1.0000
  C   C1035     1.0  0.15166482558116728  0.17476325223645517  0.39753088978607176  1.0000
  C   C1036     1.0  0.1583832173228508  0.17598784413383503  0.37105280991489725  1.0000
  C   C1037     1.0  0.1890469386514454  0.17185987876658604  0.36136498048139565  1.0000
  C   C1038     1.0  0.1683404892519748  0.17214806260728294  0.44727963276828303  1.0000
  C   C1039     1.0  0.1637584232216199  0.06921531741139636  0.45754177660307327  1.0000
  C   C1040     1.0  0.1916994256958301  0.08513959776337325  0.4607968872927298  1.0000
  C   C1041     1.0  0.19323811946954575  0.11765511195512553  0.4594276740661282  1.0000
  C   C1042     1.0  0.16676332758612722  0.1356158130741049  0.45558036375161354  1.0000
  C   C1043     1.0  0.13809265839552068  0.11928839644136738  0.45245641136813364  1.0000
  C   C1044     1.0  0.1371364852464651  0.0866440994402677  0.4537163260062546  1.0000
  C   C1045     1.0  0.13932656689056713  0.1934666845838957  0.45716618690811284  1.0000
  C   C1046     1.0  0.1344263307992938  0.22213529138651583  0.44485320410401524  1.0000
  C   C1047     1.0  0.11353409422558858  0.24373684997470849  0.4550815647387296  1.0000
  C   C1048     1.0  0.09790727562791383  0.23770707639248653  0.47869403434465096  1.0000
  C   C1049     1.0  0.10283805827575147  0.20929289163091655  0.491255423031659  1.0000
  C   C1050     1.0  0.12374929989480438  0.18718629283672883  0.4808561591495022  1.0000
  C   C1051     1.0  0.2028837726637177  0.1891026378759845  0.48644429789145227  1.0000
  C   C1052     1.0  0.2264537533101902  0.20681966988117936  0.49746358285735315  1.0000
  C   C1053     1.0  0.2426957845390819  0.2291005466792544  0.48269237543597515  1.0000
  C   C1054     1.0  0.23388974405127408  0.23489092792124536  0.45777627175654056  1.0000
  C   C1055     1.0  0.21178818863643328  0.216691699545693  0.445667975399961  1.0000
  C   C1056     1.0  0.19553139198132644  0.1929957357251446  0.45979730201989877  1.0000
  H   H649      1.0  0.23635133782437426  0.2187447805066974  0.29603622052305045  1.0000
  H   H650      1.0  0.22798727236733798  0.12762014751043924  0.3338932770785799  1.0000
  H   H651      1.0  0.2756926993584376  0.11074962168079253  0.3120772788178659  1.0000
  H   H652      1.0  0.28543121451952835  0.2002276829067526  0.275666938124406  1.0000
  H   H653      1.0  0.16844985828999812  0.13239963977817762  0.3246068715518613  1.0000
  H   H654      1.0  0.12343248717199157  0.12043245196466794  0.2979578884332445  1.0000
  H   H655      1.0  0.1280155739837433  0.21411518552652864  0.26521401857154064  1.0000
  H   H656      1.0  0.1727127423317698  0.22532684202077896  0.2921531397613967  1.0000
  H   H657      1.0  0.23569665007098864  0.15930092708681415  0.37363026935597454  1.0000
  H   H658      1.0  0.22226111593061304  0.15339143285432388  0.4189216171752434  1.0000
  H   H659      1.0  0.12793680727295267  0.17981135768579065  0.404788316061179  1.0000
  H   H660      1.0  0.14058205930627976  0.18162093951295283  0.356969189977415  1.0000
  H   H661      1.0  0.21277657457446783  0.0717760428099667  0.46309215765082096  1.0000
  H   H662      1.0  0.21657485289464595  0.12772623225580557  0.46064386926885703  1.0000
  H   H663      1.0  0.11763588237344248  0.13326374445538258  0.44715046170916967  1.0000
  H   H664      1.0  0.11591219633519018  0.07474941283428925  0.4504453173400918  1.0000
  H   H665      1.0  0.14818675889051786  0.22998620612472348  0.42802320872507665  1.0000
  H   H666      1.0  0.11222829931587769  0.266792644121819  0.4461846596364144  1.0000
  H   H667      1.0  0.09242496982736617  0.20520982754540903  0.5111457788880523  1.0000
  H   H668      1.0  0.12931634813683646  0.16675611087406422  0.4931214480240811  1.0000
  H   H669      1.0  0.19178276013566556  0.17082041932588635  0.4981511703412488  1.0000
  H   H670      1.0  0.23133986556516842  0.20190484807952344  0.5183495494924509  1.0000
  H   H671      1.0  0.24500067300856604  0.25414108910995  0.4465681983196279  1.0000
  H   H672      1.0  0.20608018249688217  0.22266619184740716  0.42581338999070667  1.0000
  C   C1057     1.0  0.7570246996373103  0.1716844094666856  0.23898633183033974  1.0000
  C   C1058     1.0  0.7885375357751795  0.1799678256082309  0.2376151313566749  1.0000
  C   C1059     1.0  0.810833959545758  0.1562390156853348  0.23769859573333274  1.0000
  C   C1060     1.0  0.8024580491292204  0.1241706566620103  0.23855708646467075  1.0000
  C   C1061     1.0  0.7710142800953943  0.1169639233540359  0.23893267615963112  1.0000
  C   C1062     1.0  0.7484728528773517  0.14013372780484037  0.2392506356897563  1.0000
  H   H673      1.0  0.7965220369796968  0.2038041013629068  0.2361704027416686  1.0000
  H   H674      1.0  0.8349081366064371  0.1632875453938915  0.2345786178439794  1.0000
  H   H675      1.0  0.7639728740570777  0.09253882890069352  0.2387756836416318  1.0000
  H   H676      1.0  0.7242600697921854  0.1330114049058411  0.2381675860402674  1.0000
  C   C1063     1.0  0.8038890898414464  0.0623899683843551  0.2723224013169018  1.0000
  C   C1064     1.0  0.8198095834032013  0.06260694827138322  0.24839197218085526  1.0000
  C   C1065     1.0  0.8263746123359254  0.03316915981303592  0.23707460015546208  1.0000
  C   C1066     1.0  0.8122062994380114  0.005988348764110363  0.2464563935412182  1.0000
  C   C1067     1.0  0.7933669732340771  0.006811258676645782  0.2690533798978022  1.0000
  C   C1068     1.0  0.791785158316069  0.03515882277117077  0.2830614844468798  1.0000
  C   C1069     1.0  0.8281226783740222  0.09656833427220411  0.23444944678486607  1.0000
  C   C1070     1.0  0.8611170518451697  0.10375285093474507  0.24856088818123426  1.0000
  C   C1071     1.0  0.8885997647946953  0.09121083636898562  0.23795892509862274  1.0000
  C   C1072     1.0  0.9167138544693673  0.09671803033008651  0.24991420343132958  1.0000
  C   C1073     1.0  0.9184641723178578  0.11548838220571836  0.27268408028241914  1.0000
  C   C1074     1.0  0.8911124477756839  0.1267255383714527  0.2840352355078881  1.0000
  C   C1075     1.0  0.8628829001562831  0.11995936531181163  0.27251516428204015  1.0000
  C   C1076     1.0  0.8064700444470523  0.08044864152481392  0.18759274445384966  1.0000
  C   C1077     1.0  0.8085740140444448  0.08162774147558881  0.1603225479032508  1.0000
  C   C1078     1.0  0.8325828247994612  0.09614381217911407  0.1468349033600469  1.0000
  C   C1079     1.0  0.8542443038657529  0.11206868018208548  0.16172296090874588  1.0000
  C   C1080     1.0  0.8517175003906367  0.11298188970126437  0.18882205548719613  1.0000
  C   C1081     1.0  0.8289984581649632  0.09588009297307624  0.20226399334794454  1.0000
  C   C1082     1.0  0.8392891026750557  0.09076840009415457  0.11567407450895378  1.0000
  C   C1083     1.0  0.8920776184811336  0.00252973051969807  0.12693143167303583  1.0000
  C   C1084     1.0  0.8604725644788659  0.001158519406665004  0.12403104458417519  1.0000
  C   C1085     1.0  0.8436406463941216  0.028706566221437413  0.12047049402089213  1.0000
  C   C1086     1.0  0.8585296167614233  0.05850830055946356  0.11871774211107708  1.0000
  C   C1087     1.0  0.8899157171280135  0.05889521799042841  0.12353860476189382  1.0000
  C   C1088     1.0  0.9071648253496435  0.031532079806935176  0.12621343930907192  1.0000
  C   C1089     1.0  0.8559495294694717  0.11908788391647047  0.10034186724161119  1.0000
  C   C1090     1.0  0.8491746200351928  0.15073960418066246  0.10603731732497851  1.0000
  C   C1091     1.0  0.8644123386538152  0.17613099190050122  0.09486163601519736  1.0000
  C   C1092     1.0  0.8890868351417968  0.16981895598909807  0.07785219222644442  1.0000
  C   C1093     1.0  0.8954912891639047  0.13862212792996323  0.07104308888881365  1.0000
  C   C1094     1.0  0.8785315585641986  0.11405150054871498  0.08118261957979937  1.0000
  C   C1095     1.0  0.8078389648382456  0.07182383756337772  0.0743882218704369  1.0000
  C   C1096     1.0  0.7816527676027577  0.07319618999350264  0.058818936028444714  1.0000
  C   C1097     1.0  0.7565748770919286  0.09274121660169728  0.06470377075694284  1.0000
  C   C1098     1.0  0.7581722120476562  0.11135687578869195  0.0870132024634699  1.0000
  C   C1099     1.0  0.7835861837868969  0.10975168653027002  0.1033722202884105  1.0000
  C   C1100     1.0  0.8092815071054379  0.08978600124230837  0.09756488819538038  1.0000
  H   H677      1.0  0.7988224020694623  0.08453468093461866  0.28253287672804667  1.0000
  H   H678      1.0  0.8381321382858202  0.032771976528209734  0.21794138543017927  1.0000
  H   H679      1.0  0.813825609733011  0.9836856931627598  0.23488862838585145  1.0000
  H   H680      1.0  0.7776999853154036  0.03699248505106212  0.3008592691456368  1.0000
  H   H681      1.0  0.8882456003040647  0.07550517901816126  0.2208924473191536  1.0000
  H   H682      1.0  0.9379035944107742  0.0858170334349185  0.24182412063670697  1.0000
  H   H683      1.0  0.8914630475670566  0.14136759863033618  0.30191052284211317  1.0000
  H   H684      1.0  0.8418841282760228  0.12868003609427217  0.2830316757409305  1.0000
  H   H685      1.0  0.787837376907955  0.06839217172163177  0.1968344369216444  1.0000
  H   H686      1.0  0.7894732149224645  0.07035993917738602  0.14928080704553487  1.0000
  H   H687      1.0  0.8739586189422573  0.12478663694250272  0.15250650647865482  1.0000
  H   H688      1.0  0.8676950282677457  0.12782981091692325  0.1998951948485119  1.0000
  H   H689      1.0  0.8481641531909472  0.9784382343441386  0.1251655639326031  1.0000
  H   H690      1.0  0.8186993636484763  0.02709206096605299  0.11902079728822765  1.0000
  H   H691      1.0  0.9025479377996618  0.08142802355713698  0.12494855655329266  1.0000
  H   H692      1.0  0.9321300707931388  0.033490674180512325  0.1284936065894821  1.0000
  H   H693      1.0  0.8323108221040834  0.1571562751425975  0.12125327063911907  1.0000
  H   H694      1.0  0.8590018443436512  0.20000464710567017  0.10018030405536632  1.0000
  H   H695      1.0  0.9147045924145718  0.1328598438210377  0.05771780243067994  1.0000
  H   H696      1.0  0.8863516171832931  0.0906586347227249  0.07506309097312759  1.0000
  H   H697      1.0  0.8267121287654008  0.05597993158031007  0.06891256131226861  1.0000
  H   H698      1.0  0.7808280650605233  0.059318940590423135  0.04097764191214881  1.0000
  H   H699      1.0  0.738823800543977  0.12611473842562185  0.09267427317264243  1.0000
  H   H700      1.0  0.7843484011233812  0.12590309236604863  0.12029581500402962  1.0000
  C   C1101     1.0  0.7434713799757865  0.989940406184134  0.8090182156975758  1.0000
  C   C1102     1.0  0.7565244574917881  0.979104028923198  0.8323882411617766  1.0000
  C   C1103     1.0  0.781915183482536  0.9952866845492643  0.8431591202447671  1.0000
  C   C1104     1.0  0.7955456446392373  0.021114878398249326  0.8304387517926967  1.0000
  C   C1105     1.0  0.7805446067329197  0.03237265074401119  0.8080504263777571  1.0000
  C   C1106     1.0  0.7550926223818059  0.016878862039374054  0.7979532240492194  1.0000
  H   H701      1.0  0.7484931754408032  0.9568774923552757  0.8408181432042204  1.0000
  H   H702      1.0  0.7916870588207983  0.987065289500516  0.8616107092273441  1.0000
  H   H703      1.0  0.7893585296614374  0.05257428838852592  0.797655136989727  1.0000
  H   H704      1.0  0.7452649603598968  0.024650976246200385  0.7797242067377301  1.0000
  C   C1107     1.0  0.8550807682530225  0.04619802726689093  0.7968145314819587  1.0000
  C   C1108     1.0  0.8495164996280299  0.05571175744136321  0.822954779352375  1.0000
  C   C1109     1.0  0.8660404034724953  0.08172371191810529  0.8321020775846639  1.0000
  C   C1110     1.0  0.88542520841748  0.09821568663363674  0.8156357484183061  1.0000
  C   C1111     1.0  0.8900076695418734  0.0890553820554549  0.7898094855838881  1.0000
  C   C1112     1.0  0.8747384522349534  0.06305161766401401  0.780419743209879  1.0000
  C   C1113     1.0  0.8261925022510066  0.03666549469414271  0.8426583339848199  1.0000
  C   C1114     1.0  0.8507415130235094  0.010915052984854068  0.8519566629939183  1.0000
  C   C1115     1.0  0.8712397702248716  0.017553155089674366  0.8725067848753213  1.0000
  C   C1116     1.0  0.8928115520708474  0.9951056204661552  0.8810579089886255  1.0000
  C   C1117     1.0  0.8943259102240866  0.9657514446641448  0.8692039802561461  1.0000
  C   C1118     1.0  0.8758346951580558  0.9597161847078766  0.8478450488199869  1.0000
  C   C1119     1.0  0.8544395520225749  0.9814924382722396  0.839484700424758  1.0000
  C   C1120     1.0  0.7965644137705442  0.0879203474372811  0.8555972996138516  1.0000
  C   C1121     1.0  0.7861530454305435  0.10978807584917825  0.874094595278884  1.0000
  C   C1122     1.0  0.785809965280184  0.10341286893401534  0.9010774359041324  1.0000
  C   C1123     1.0  0.7961270361755473  0.0727465259365555  0.9083746071205052  1.0000
  C   C1124     1.0  0.8057808250276218  0.05097677955904656  0.889956801338004  1.0000
  C   C1125     1.0  0.8093060152839924  0.05944262016863289  0.8639914312091563  1.0000
  C   C1126     1.0  0.7804895278705102  0.13028650342105733  0.9229013831530994  1.0000
  C   C1127     1.0  0.8756262234767151  0.16718085786908662  0.9135573474615456  1.0000
  C   C1128     1.0  0.8512182958096944  0.1820562664146131  0.9022817076244813  1.0000
  C   C1129     1.0  0.8220151743309521  0.1707263231927388  0.905348029843126  1.0000
  C   C1130     1.0  0.8148246700068773  0.14543693502293617  0.9221203950572294  1.0000
  C   C1131     1.0  0.8402661759108395  0.13082781567479218  0.9346917199795538  1.0000
  C   C1132     1.0  0.8703942962468744  0.14170258073368025  0.9305105521584077  1.0000
  C   C1133     1.0  0.7676045543060123  0.11644796143911232  0.9504068697559909  1.0000
  C   C1134     1.0  0.7427699569845593  0.09562718429868083  0.9503710993088519  1.0000
  C   C1135     1.0  0.7296087618967179  0.08464257101043574  0.9732105298071563  1.0000
  C   C1136     1.0  0.7411697508727304  0.0935154074965157  0.997347632637784  1.0000
  C   C1137     1.0  0.7657541304102086  0.11397092089883974  0.9977987377211491  1.0000
  C   C1138     1.0  0.7782756038559518  0.1259324463291474  0.974897702563883  1.0000
  C   C1139     1.0  0.754601296574706  0.18497477581874563  0.9316552064668584  1.0000
  C   C1140     1.0  0.7325175623253228  0.20762024389897205  0.9265618922436656  1.0000
  C   C1141     1.0  0.7090510829610097  0.20251844799843235  0.9088853296157687  1.0000
  C   C1142     1.0  0.7083920968190772  0.17352366724591697  0.8960477135869646  1.0000
  C   C1143     1.0  0.7303448863271921  0.1507714045420797  0.9009661500685885  1.0000
  C   C1144     1.0  0.7545707057363699  0.1565648202425004  0.9178796098241848  1.0000
  H   H705      1.0  0.8430070423198658  0.02577919472812762  0.7892192732060933  1.0000
  H   H706      1.0  0.8624178969363631  0.09047410332714349  0.8518175556994884  1.0000
  H   H707      1.0  0.8963792792874389  0.11961013364853261  0.8228256082932617  1.0000
  H   H708      1.0  0.8761861338516207  0.055788145161401737  0.7600425118229813  1.0000
  H   H709      1.0  0.8702565185601313  0.04071105692390575  0.8817494709666477  1.0000
  H   H710      1.0  0.9057686596298876  0.00013805363157759487  0.8993226967472538  1.0000
  H   H711      1.0  0.8751471275686852  0.9357711167089567  0.8393058481890625  1.0000
  H   H712      1.0  0.8401847393246726  0.975443648817312  0.8229786263171344  1.0000
  H   H713      1.0  0.7967497451368044  0.09464323333616427  0.8353094943448016  1.0000
  H   H714      1.0  0.7780800663323849  0.13305148196946953  0.8674750753110904  1.0000
  H   H715      1.0  0.7957218322143286  0.06509753495681102  0.9289803719196803  1.0000
  H   H716      1.0  0.812249154002114  0.026734700417366142  0.8965147166468359  1.0000
  H   H717      1.0  0.8560890030873758  0.20235755884496115  0.8891261320655519  1.0000
  H   H718      1.0  0.8044603104646484  0.18304554203097245  0.8936570553698358  1.0000
  H   H719      1.0  0.8376594894504894  0.11037217843036261  0.9475492084789908  1.0000
  H   H720      1.0  0.8896760378151384  0.13111315238825058  0.9395147686021401  1.0000
  H   H721      1.0  0.7312081899367953  0.08888379248375523  0.932279202044729  1.0000
  H   H722      1.0  0.7105410513450112  0.06821001204798509  0.9725308913115137  1.0000
  H   H723      1.0  0.7746897014350405  0.12022852851552046  0.016802781387318833  1.0000
  H   H724      1.0  0.7983903310634041  0.14137891180861706  0.9776599759818455  1.0000
  H   H725      1.0  0.7740727803216307  0.19015734236886428  0.9448048202845978  1.0000
  H   H726      1.0  0.7340648989363927  0.22957010979479395  0.9382647901993355  1.0000
  H   H727      1.0  0.689661792858039  0.16742699738687042  0.8817713306843438  1.0000
  H   H728      1.0  0.7265859129357805  0.1277595105531383  0.8911491495759735  1.0000
  C   C1145     1.0  0.9421749575495417  0.756932969396906  0.2079057877606032  1.0000
  C   C1146     1.0  0.9391293715862341  0.7878183349909933  0.21759162994704156  1.0000
  C   C1147     1.0  0.9645232048752085  0.8047198833497222  0.22597383805996665  1.0000
  C   C1148     1.0  0.9943102585190883  0.7914115869924392  0.22549093702358905  1.0000
  C   C1149     1.0  0.996798309895685  0.7602216720546165  0.21627805963821192  1.0000
  C   C1150     1.0  0.9712366160596215  0.7433138442259779  0.20766533086594605  1.0000
  H   H729      1.0  0.9157166152840523  0.7981739931306095  0.21950336162191922  1.0000
  H   H730      1.0  0.9596201663104084  0.8280150485034834  0.23250591915697585  1.0000
  H   H731      1.0  0.01941485171653401  0.7498221976923989  0.21313820927822574  1.0000
  H   H732      1.0  0.9752113718434204  0.7193642606105084  0.19989320760144863  1.0000
  C   C1151     1.0  0.051770864547032946  0.7691366311751741  0.2574796530012456  1.0000
  C   C1152     1.0  0.054789871949741054  0.7939191804548069  0.2394970543256033  1.0000
  C   C1153     1.0  0.08482100702531568  0.8021906811045941  0.2305166848466302  1.0000
  C   C1154     1.0  0.11052490286998534  0.7845935735745565  0.23755352669771315  1.0000
  C   C1155     1.0  0.10724393584684007  0.7591590136241619  0.25466372391257447  1.0000
  C   C1156     1.0  0.07835952006001726  0.7523401275771433  0.2651365159360727  1.0000
  C   C1157     1.0  0.024775715923261554  0.8124444075551801  0.23033783261093477  1.0000
  C   C1158     1.0  0.022490260513934768  0.8385803902307574  0.25296065317934147  1.0000
  C   C1159     1.0  0.0405163435682212  0.8661767104389898  0.25167291708233447  1.0000
  C   C1160     1.0  0.038413922475721396  0.8893075402608162  0.27061933058366877  1.0000
  C   C1161     1.0  0.01668351131730783  0.8874816343170527  0.2907839265347951  1.0000
  C   C1162     1.0  0.00032304566032137494  0.8595401056284278  0.29398339430667975  1.0000
  C   C1163     1.0  0.003127158617632908  0.8353872381227908  0.27519993506453466  1.0000
  C   C1164     1.0  0.039206060660572195  0.8099476973447751  0.17975881780568415  1.0000
  C   C1165     1.0  0.035401979336764366  0.8197409671080358  0.1540629183786176  1.0000
  C   C1166     1.0  0.018637298167547334  0.8470889078131492  0.14798730793204437  1.0000
  C   C1167     1.0  0.00923094279048553  0.8657561696563413  0.1692544285538798  1.0000
  C   C1168     1.0  0.011884130109931501  0.8555827843905559  0.19480943216415963  1.0000
  C   C1169     1.0  0.02588022647271848  0.8266961521846656  0.20081529023881167  1.0000
  C   C1170     1.0  0.011058948829476112  0.855196329622494  0.11795960735643485  1.0000
  C   C1171     1.0  0.10216354502671635  0.89372730067134  0.09738285636438371  1.0000
  C   C1172     1.0  0.09530026541347053  0.863128743923583  0.0899773801830619  1.0000
  C   C1173     1.0  0.06602264185022469  0.8513294445795901  0.09595442317529633  1.0000
  C   C1174     1.0  0.04347965624601402  0.8699426053124775  0.10896095520447956  1.0000
  C   C1175     1.0  0.05166933913391558  0.9006782714277797  0.11581715629751012  1.0000
  C   C1176     1.0  0.08025481501972  0.9126151729149208  0.10973021854267616  1.0000
  C   C1177     1.0  0.9831013890732077  0.879646317295812  0.11328739078595162  1.0000
  C   C1178     1.0  0.9563715203031095  0.8780354820929979  0.12878434083484033  1.0000
  C   C1179     1.0  0.9322331804755676  0.8991554677445273  0.12654848916394132  1.0000
  C   C1180     1.0  0.9342013805331844  0.9231685966851078  0.10833755580072786  1.0000
  C   C1181     1.0  0.9599078722869977  0.9245213036464871  0.0916621682433127  1.0000
  C   C1182     1.0  0.9834656431428505  0.9027176719207667  0.09365736429484824  1.0000
  C   C1183     1.0  0.0005876676631351163  0.8222672572690028  0.07406271080147124  1.0000
  C   C1184     1.0  0.9875938488430971  0.7979608138883703  0.05986879865197679  1.0000
  C   C1185     1.0  0.9718899809301739  0.7744690990075161  0.07284890029521836  1.0000
  C   C1186     1.0  0.9655620293472398  0.7778825236255663  0.09953643600686282  1.0000
  C   C1187     1.0  0.9787799840204554  0.8024989376294992  0.11372100809515985  1.0000
  C   C1188     1.0  0.9980097376525029  0.8251674526484455  0.10176871063304793  1.0000
  H   H733      1.0  0.0295177763827843  0.7632762729014887  0.2668316376810525  1.0000
  H   H734      1.0  0.08799821377700885  0.8221640989225275  0.21744059917023212  1.0000
  H   H735      1.0  0.133429329855374  0.7900408503043146  0.22885335905466284  1.0000
  H   H736      1.0  0.07552594483021616  0.7332879400056671  0.2801362567697281  1.0000
  H   H737      1.0  0.057380237072798025  0.869776391296787  0.2361564920122256  1.0000
  H   H738      1.0  0.051733849705061674  0.9107763346747604  0.26774974582428895  1.0000
  H   H739      1.0  0.9830855837481891  0.8572890909643692  0.31005028681331787  1.0000
  H   H740      1.0  0.9889832834351466  0.81459406808925  0.2774494987401703  1.0000
  H   H741      1.0  0.04889643628611284  0.7871452542266941  0.18291436741747025  1.0000
  H   H742      1.0  0.045486054384323404  0.8051704155835245  0.13854887800498467  1.0000
  H   H743      1.0  0.9973204689215898  0.8876687747936758  0.16714774794209414  1.0000
  H   H744      1.0  0.0002092865095568719  0.8693908627198468  0.21042760428390858  1.0000
  H   H745      1.0  0.11172559756051771  0.8467665848823243  0.08092964302864353  1.0000
  H   H746      1.0  0.061375820677284726  0.8260443783695524  0.09110136712205441  1.0000
  H   H747      1.0  0.0367039752083933  0.9157695785708526  0.12782052600914837  1.0000
  H   H748      1.0  0.08688789198040581  0.9359898217684164  0.11747432162358129  1.0000
  H   H749      1.0  0.9545332241387915  0.8595049293989593  0.14368491804003797  1.0000
  H   H750      1.0  0.9114484978504294  0.8977596968973155  0.13919751544644005  1.0000
  H   H751      1.0  0.962246751760295  0.9426349444567304  0.07682856126414767  1.0000
  H   H752      1.0  0.0027222807810718397  0.9060457604878678  0.07964051585869224  1.0000
  H   H753      1.0  0.011587225264970025  0.8410175531125582  0.06285483608926491  1.0000
  H   H754      1.0  0.9902730170633344  0.7969772549883971  0.03852339178899511  1.0000
  H   H755      1.0  0.9525196046535435  0.760285594646603  0.11024193466147136  1.0000
  H   H756      1.0  0.9717779104752626  0.8048087167445265  0.13430133613192488  1.0000
  C   C1189     1.0  0.10551929538755861  0.7752841432526908  0.8330837776339255  1.0000
  C   C1190     1.0  0.11228612380068999  0.7916029720154735  0.8559073101557236  1.0000
  C   C1191     1.0  0.0915387180654213  0.8140483833027291  0.8656030885774783  1.0000
  C   C1192     1.0  0.06512099832122273  0.821882586913178  0.8513922848279459  1.0000
  C   C1193     1.0  0.05752424878344518  0.8025391997957471  0.8295762865672319  1.0000
  C   C1194     1.0  0.07774779471235617  0.7797487033622373  0.821082792618763  1.0000
  H   H757      1.0  0.132988485536273  0.7878522882504023  0.8669385186040042  1.0000
  H   H758      1.0  0.0966103479856387  0.8264132685853629  0.884080511771878  1.0000
  H   H759      1.0  0.0358810149662363  0.8042406350056138  0.8188093819783681  1.0000
  H   H760      1.0  0.07222657303885595  0.7666303293853688  0.802988908107577  1.0000
  C   C1195     1.0  0.03218420310403847  0.8722684311852585  0.8136604248374033  1.0000
  C   C1196     1.0  0.023780637868961785  0.8697982449061971  0.8403233186854632  1.0000
  C   C1197     1.0  0.9979098254649934  0.8869017514861381  0.8485902664687178  1.0000
  C   C1198     1.0  0.978938113067552  0.9017211336779799  0.8310905688294531  1.0000
  C   C1199     1.0  0.9854844769343799  0.9001716955204634  0.8046184506994685  1.0000
  C   C1200     1.0  0.01285256402250945  0.8866623191584831  0.7960096964213292  1.0000
  C   C1201     1.0  0.042004345220806094  0.8493976737479596  0.8613702523326869  1.0000
  C   C1202     1.0  0.06129974381974914  0.8775236801381812  0.8754141273289036  1.0000
  C   C1203     1.0  0.04806194826614418  0.8923716192547148  0.8972321128366809  1.0000
  C   C1204     1.0  0.061368525088489896  0.9194267894413312  0.9076293894717743  1.0000
  C   C1205     1.0  0.08932706865179807  0.9296734908519287  0.8983668309098151  1.0000
  C   C1206     1.0  0.10433841034161485  0.9136875967175168  0.8779478673345885  1.0000
  C   C1207     1.0  0.08895184957300839  0.8894260433040968  0.8651460217529234  1.0000
  C   C1208     1.0  0.9922997284406657  0.8143748853793371  0.8673896236873692  1.0000
  C   C1209     1.0  0.9701357549018823  0.7993551055399051  0.8823297471091262  1.0000
  C   C1210     1.0  0.9726698334083717  0.7987408416961661  0.9097974760178152  1.0000
  C   C1211     1.0  0.000768694302170525  0.8088889004948684  0.92079490126602  1.0000
  C   C1212     1.0  0.023880745288326732  0.8215840858153437  0.9052248205252025  1.0000
  C   C1213     1.0  0.01804306594711469  0.8285863259601504  0.8786871232421295  1.0000
  C   C1214     1.0  0.9422095605396354  0.7937393199493157  0.928296758929911  1.0000
  C   C1215     1.0  0.9110652152514944  0.8912663977896067  0.9127326399302834  1.0000
  C   C1216     1.0  0.8979822013920685  0.8662990460643368  0.8995850133596072  1.0000
  C   C1217     1.0  0.9054011464801308  0.8359154777959619  0.9067987201993222  1.0000
  C   C1218     1.0  0.9279760999089397  0.8286441519512404  0.9257510954418464  1.0000
  C   C1219     1.0  0.940035970365979  0.854254069112235  0.9394213679901658  1.0000
  C   C1220     1.0  0.9323778564266774  0.884867895360856  0.9327720393164229  1.0000
  C   C1221     1.0  0.9514919709628569  0.7802513515121624  0.9568217032762665  1.0000
  C   C1222     1.0  0.9717024705189199  0.7550486305805599  0.9587155497275746  1.0000
  C   C1223     1.0  0.9776772014847493  0.7403638801726388  0.9825704634752164  1.0000
  C   C1224     1.0  0.9632800894557262  0.7515668979991305  0.005350276561622236  1.0000
  C   C1225     1.0  0.9436363823915273  0.7774114555216308  0.003867790252413794  1.0000
  C   C1226     1.0  0.9377343691369553  0.7913134122154649  0.9799274248810508  1.0000
  C   C1227     1.0  0.88834768637214  0.7672208529386083  0.9310252491477978  1.0000
  C   C1228     1.0  0.8678021763389251  0.7424866001925406  0.9276151331872053  1.0000
  C   C1229     1.0  0.8758138106336228  0.7173965781659266  0.9113952226566944  1.0000
  C   C1230     1.0  0.9053355247998196  0.7161673421501841  0.8995850133596072  1.0000
  C   C1231     1.0  0.9261464295231043  0.7408380663906863  0.9042192735111817  1.0000
  C   C1232     1.0  0.9178689932497597  0.7670032890180617  0.919654221451696  1.0000
  H   H761      1.0  0.053400068628912  0.8617738952444399  0.8051093007240994  1.0000
  H   H762      1.0  0.9902447575961336  0.8872440024206517  0.8695318760215877  1.0000
  H   H763      1.0  0.957167882416826  0.9138892289800973  0.838091640233397  1.0000
  H   H764      1.0  0.02024993301348066  0.8890439396163012  0.7754873959988121  1.0000
  H   H765      1.0  0.02440852164182261  0.8865939136098595  0.9046385826415342  1.0000
  H   H766      1.0  0.05001802121722365  0.9312348043480588  0.924467333838966  1.0000
  H   H767      1.0  0.12787726435974522  0.9209374538536214  0.8702830554115083  1.0000
  H   H768      1.0  0.09975689794008472  0.8792526528117516  0.8477317757373799  1.0000
  H   H769      1.0  0.9890042237473117  0.8161399327726652  0.8455795871678451  1.0000
  H   H770      1.0  0.9487432656356606  0.791754656654117  0.8721490804039306  1.0000
  H   H771      1.0  0.005641092280193494  0.8094253402624954  0.9418915160898259  1.0000
  H   H772      1.0  0.045741139892270244  0.8283636774325425  0.9149702801235393  1.0000
  H   H773      1.0  0.8812635825003629  0.8705386242651885  0.8841838486191687  1.0000
  H   H774      1.0  0.8947003076110983  0.8171118282319835  0.8952945469499805  1.0000
  H   H775      1.0  0.9584827520672387  0.85092610239078  0.9538209602107101  1.0000
  H   H776      1.0  0.9429401836097657  0.9042364214412111  0.9438608779295387  1.0000
  H   H777      1.0  0.9835653238601793  0.7464650014930981  0.9415218881360553  1.0000
  H   H778      1.0  0.9941109177449748  0.7213180111310847  0.9825128333103811  1.0000
  H   H779      1.0  0.9309278007849511  0.7858134417007129  0.021365500644615176  1.0000
  H   H780      1.0  0.9194335784387876  0.8091524832425036  0.9792477863854082  1.0000
  H   H781      1.0  0.8817386830086634  0.7864034683990327  0.9446796237196111  1.0000
  H   H782      1.0  0.8448592081027507  0.7443028947748201  0.9372989881265803  1.0000
  H   H783      1.0  0.9124078241714516  0.6956506962696306  0.8883431567226187  1.0000
  H   H784      1.0  0.9489976068994644  0.7395118171443973  0.8958032821981807  1.0000
  C   C1233     1.0  0.31369429925638026  0.936364676614151  0.20274888163138544  1.0000
  C   C1234     1.0  0.28203638961558397  0.9345378738809157  0.21039580833089605  1.0000
  C   C1235     1.0  0.26514190674309107  0.9614098988516145  0.21540565817743093  1.0000
  C   C1236     1.0  0.2785570499373873  0.9914409162685224  0.21225984607625492  1.0000
  C   C1237     1.0  0.3103667281052819  0.9930665677158901  0.20485138902433817  1.0000
  C   C1238     1.0  0.3277367619557949  0.9658357012711873  0.20039995560258567  1.0000
  H   H785      1.0  0.2705675460752814  0.9123252399132494  0.21148084522744823  1.0000
  H   H786      1.0  0.24022613318171024  0.9593814744343258  0.21884955733809933  1.0000
  H   H787      1.0  0.321726526942076  0.015363044883592858  0.20127434431042987  1.0000
  H   H788      1.0  0.3516132950920169  0.9686013998791462  0.1933684793185736  1.0000
  C   C1239     1.0  0.2937861012804997  0.05135108805384872  0.24398028370036837  1.0000
  C   C1240     1.0  0.27185805732026247  0.053270359901153495  0.2240521701497726  1.0000
  C   C1241     1.0  0.2624188446137685  0.08371859468905407  0.2161886335203642  1.0000
  C   C1242     1.0  0.2763185146943022  0.11064861253186355  0.22681245632067182  1.0000
  C   C1243     1.0  0.2993484929753399  0.10752999820905675  0.24524814732674255  1.0000
  C   C1244     1.0  0.3078392309737541  0.07781880029924078  0.25382113115774274  1.0000
  C   C1245     1.0  0.2559798200582669  0.022074644439021407  0.2130189744544288  1.0000
  C   C1246     1.0  0.22642988354000634  0.01959358189117899  0.23292324104026518  1.0000
  C   C1247     1.0  0.19776205863860513  0.03300871911318626  0.22677867312059602  1.0000
  C   C1248     1.0  0.17143352953357885  0.026182423138841227  0.24121801028240583  1.0000
  C   C1249     1.0  0.17350018089627137  0.006180426657685478  0.2634036364968904  1.0000
  C   C1250     1.0  0.2024717401693011  0.9973554172417731  0.2723502227757877  1.0000
  C   C1251     1.0  0.2287193857189551  0.004244272406942251  0.2572670175654744  1.0000
  C   C1252     1.0  0.2668361116012255  0.03773915099592928  0.16397411438203216  1.0000
  C   C1253     1.0  0.25957596480417017  0.03915655330512191  0.13714925989831486  1.0000
  C   C1254     1.0  0.23251890435525513  0.025598832088904233  0.1280774770544308  1.0000
  C   C1255     1.0  0.21383302130584655  0.0098611676898257  0.1459243467556509  1.0000
  C   C1256     1.0  0.2222942808533068  0.00689440522671636  0.17214289216036074  1.0000
  C   C1257     1.0  0.2472624363108345  0.023526020718239504  0.18227805090780724  1.0000
  C   C1258     1.0  0.22337223735060072  0.02860133256238262  0.09784807090189812  1.0000
  C   C1259     1.0  0.17085628029245314  0.11854188565747524  0.10487775866355323  1.0000
  C   C1260     1.0  0.2023888759627051  0.11845813890086324  0.09926418315919314  1.0000
  C   C1261     1.0  0.21845510542736657  0.09041514750358981  0.0968761083632467  1.0000
  C   C1262     1.0  0.20395367353105442  0.061184106754107834  0.09992712877950415  1.0000
  C   C1263     1.0  0.17274026360498348  0.061711178461476585  0.10626585073725597  1.0000
  C   C1264     1.0  0.1560092966366658  0.08941485312532145  0.10796951764460797  1.0000
  C   C1265     1.0  0.2038960640603313  0.9995709237490092  0.08590650457392793  1.0000
  C   C1266     1.0  0.21190692875071948  0.9689832909223112  0.09327799883046761  1.0000
  C   C1267     1.0  0.19467169907996668  0.9429509639885545  0.08575388399946786  1.0000
  C   C1268     1.0  0.16797572699698726  0.9477140817923152  0.07200094197331576  1.0000
  C   C1269     1.0  0.16232124905760908  0.97708198109731  0.06082466448941563  1.0000
  C   C1270     1.0  0.18047077631382516  0.0027286858455721763  0.0673670792711539  1.0000
  C   C1271     1.0  0.2523181398133777  0.04337676456315287  0.05324590036417559  1.0000
  C   C1272     1.0  0.27646203620825227  0.03910453007800263  0.0351848167226807  1.0000
  C   C1273     1.0  0.3009619211439082  0.01845956099066126  0.0403993530167337  1.0000
  C   C1274     1.0  0.29954747145727617  0.0016623920940332937  0.06332164042442995  1.0000
  C   C1275     1.0  0.2762738673483227  0.006283173764320971  0.0817283176233767  1.0000
  C   C1276     1.0  0.2519452852254445  0.027545040984127134  0.07712287255421979  1.0000
  H   H789      1.0  0.30100081073924356  0.028401476439234186  0.251951131671194  1.0000
  H   H790      1.0  0.24548144432749855  0.08644924398201473  0.20147505626382142  1.0000
  H   H791      1.0  0.2706183691217614  0.13363504022631464  0.21741079046428288  1.0000
  H   H792      1.0  0.3268147562467154  0.07535492238390122  0.26753711038851774  1.0000
  H   H793      1.0  0.1956292112732455  0.047424158832431784  0.20950552164654554  1.0000
  H   H794      1.0  0.14886301974796998  0.035625093306482336  0.2359100733763786  1.0000
  H   H795      1.0  0.20499480831395764  0.9848802420670656  0.2905613548637075  1.0000
  H   H796      1.0  0.251409180723626  0.9936195415677437  0.2630658044961324  1.0000
  H   H797      1.0  0.2878917398267054  0.04979461874639268  0.1701645877088631  1.0000
  H   H798      1.0  0.27437501322571667  0.05233482635342252  0.12403024968534988  1.0000
  H   H799      1.0  0.1922537647038277  0.9992693878422544  0.14000394030472002  1.0000
  H   H800      1.0  0.2080360106227709  0.9933028599436047  0.18594531663838856  1.0000
  H   H801      1.0  0.2147585352826202  0.14097498673443448  0.09608915852618687  1.0000
  H   H802      1.0  0.2432678497617545  0.09028839877113294  0.09205226484183504  1.0000
  H   H803      1.0  0.1597831629343216  0.03963371118967718  0.11059546591402931  1.0000
  H   H804      1.0  0.13095113038184591  0.08704727664636247  0.11082698019690171  1.0000
  H   H805      1.0  0.2317587055941053  0.9663683355382636  0.10621159889242837  1.0000
  H   H806      1.0  0.20040959546242385  0.91975897221308  0.09388271811182444  1.0000
  H   H807      1.0  0.1407542399012364  0.9807022926903576  0.04911343138922697  1.0000
  H   H808      1.0  0.17293980176770724  0.025829696142394942  0.06027618429994969  1.0000
  H   H809      1.0  0.2342297398516788  0.0598907940542808  0.048254940657888934  1.0000
  H   H810      1.0  0.2763309003673052  0.052824003455478996  0.01688227126984998  1.0000
  H   H811      1.0  0.3170597772013013  0.9830183758558065  0.06708806978346905  1.0000
  H   H812      1.0  0.2776031308698073  0.9928458601221886  0.09978066867094024  1.0000
  C   C1277     1.0  0.31491186900719764  0.08494963529911577  0.7840603798298122  1.0000
  C   C1278     1.0  0.3041113935958382  0.10344759576070975  0.8051490456653648  1.0000
  C   C1279     1.0  0.27607545800229194  0.0976014005030866  0.8174282452693867  1.0000
  C   C1280     1.0  0.25618122462318177  0.07411447724183842  0.8076529769651007  1.0000
  C   C1281     1.0  0.2663050838834234  0.05684295927486566  0.7853123454796802  1.0000
  C   C1282     1.0  0.29572481310410426  0.06069265216118138  0.7750879593390924  1.0000
  H   H813      1.0  0.316873898448217  0.12467423292362326  0.811623496597539  1.0000
  H   H814      1.0  0.26817255501155673  0.1110864894627473  0.8347093457316904  1.0000
  H   H815      1.0  0.2540527020372268  0.036790706102869164  0.7769321246138183  1.0000
  H   H816      1.0  0.30443428170646736  0.0461820230836556  0.7586852220787594  1.0000
  C   C1283     1.0  0.19075638666472722  0.06118482242346911  0.7802488399624365  1.0000
  C   C1284     1.0  0.19617474116461117  0.05162391956953516  0.8063334449150813  1.0000
  C   C1285     1.0  0.17443360901672372  0.03189124865460036  0.8186623256956851  1.0000
  C   C1286     1.0  0.14699158694466463  0.025165251933016997  0.8065401186096626  1.0000
  C   C1287     1.0  0.14143685243737528  0.034653551159913976  0.7808887335168135  1.0000
  C   C1288     1.0  0.16396583828247216  0.0516920294223262  0.7675741781928216  1.0000
  C   C1289     1.0  0.2250376366558704  0.06500221329753336  0.8228812512110336  1.0000
  C   C1290     1.0  0.20582227689977833  0.09470640795358184  0.8358520127930777  1.0000
  C   C1291     1.0  0.18868543610023594  0.09143433978693405  0.8596969903054031  1.0000
  C   C1292     1.0  0.16961598034496342  0.11547985240926979  0.8691165413853615  1.0000
  C   C1293     1.0  0.1672051458436223  0.14347264171425952  0.8554641540606116  1.0000
  C   C1294     1.0  0.18493726894094847  0.14724477125695637  0.83277774158618  1.0000
  C   C1295     1.0  0.20321032357079546  0.1231615404142307  0.8225513681985288  1.0000
  C   C1296     1.0  0.24047163196894863  0.007521280765617755  0.8381015764687134  1.0000
  C   C1297     1.0  0.24731011459485824  0.9855605649660572  0.8579879578309803  1.0000
  C   C1298     1.0  0.2546818369900044  0.9962601443071235  0.8836453046650192  1.0000
  C   C1299     1.0  0.2551469781593303  0.028987159748615987  0.8883153352637327  1.0000
  C   C1300     1.0  0.24800475634868596  0.050030381249818845  0.8685322907487566  1.0000
  C   C1301     1.0  0.23870662097890913  0.039760301674736986  0.8440017129995988  1.0000
  C   C1302     1.0  0.2603846297215353  0.970857435990196  0.9067112813285378  1.0000
  C   C1303     1.0  0.16268027566065824  0.9499081115339366  0.9248091403338504  1.0000
  C   C1304     1.0  0.17969374817418274  0.928611490640376  0.9084501225089099  1.0000
  C   C1305     1.0  0.21020846877982288  0.9349983414530448  0.9022896566127345  1.0000
  C   C1306     1.0  0.22480941901332763  0.9618497443214677  0.912525966235702  1.0000
  C   C1307     1.0  0.20637653489589866  0.9830497436811665  0.9276051969518888  1.0000
  C   C1308     1.0  0.1759926680862903  0.977044912974297  0.9338332292482159  1.0000
  C   C1309     1.0  0.2795059532797044  0.9850506523363979  0.9308841546063048  1.0000
  C   C1310     1.0  0.3060722130353073  0.0032932382006480854  0.926635420385007  1.0000
  C   C1311     1.0  0.3226872625783397  0.015657704519703053  0.9468695699833483  1.0000
  C   C1312     1.0  0.3144773547749593  0.008686955310868827  0.9727534629826013  1.0000
  C   C1313     1.0  0.2892607066609703  0.9890078706197435  0.9776063203111369  1.0000
  C   C1314     1.0  0.272549087249289  0.9770856867437787  0.9571734460064674  1.0000
  C   C1315     1.0  0.27950079637809616  0.9118419536899619  0.9111209825619614  1.0000
  C   C1316     1.0  0.3017183557919109  0.8877443383170367  0.9080566475903801  1.0000
  C   C1317     1.0  0.32685513775596  0.8924178401764583  0.8915446117415666  1.0000
  C   C1318     1.0  0.3298479958643192  0.9209286822965083  0.8780472296877527  1.0000
  C   C1319     1.0  0.3075399459946372  0.9442574288608557  0.8802391631985532  1.0000
  C   C1320     1.0  0.282824707112976  0.9411087511722617  0.898344971192119  1.0000
  H   H817      1.0  0.20737470371284852  0.07708478155455752  0.7707597352352632  1.0000
  H   H818      1.0  0.17680272244963216  0.024076790166634998  0.8388010874349889  1.0000
  H   H819      1.0  0.13018487242118187  0.010594191431718025  0.8168022624444529  1.0000
  H   H820      1.0  0.15841366906996807  0.06205126364390571  0.7483535245967543  1.0000
  H   H821      1.0  0.18851262625574933  0.06998897549849  0.8708414718362908  1.0000
  H   H822      1.0  0.15657778296309255  0.1123054997946098  0.886979905237207  1.0000
  H   H823      1.0  0.18223588889923037  0.16821160137221677  0.821285491819218  1.0000
  H   H824      1.0  0.2160076237071268  0.12634582143428144  0.8043104274046597  1.0000
  H   H825      1.0  0.2350839978493852  0.9990940589527603  0.8182072461181934  1.0000
  H   H826      1.0  0.24739939954339307  0.9607259262270353  0.8530874065729259  1.0000
  H   H827      1.0  0.26143464422082274  0.039071748293083575  0.9074644479655218  1.0000
  H   H828      1.0  0.24927622008685843  0.07498829903920035  0.8727989101936239  1.0000
  H   H829      1.0  0.16882548855210502  0.9076936137610583  0.9003977974084896  1.0000
  H   H830      1.0  0.22249785641142744  0.9180836243079048  0.890076036161801  1.0000
  H   H831      1.0  0.21690281754518032  0.004529389570441245  0.9344035691553779  1.0000
  H   H832      1.0  0.16279055621812114  0.992699819170643  0.9466827687593997  1.0000
  H   H833      1.0  0.3144874731644797  0.008827012597043105  0.9067450645286136  1.0000
  H   H834      1.0  0.3434084343560647  0.028246723897476844  0.941307265453221  1.0000
  H   H835      1.0  0.2813910002906167  0.9847176463678415  0.9980193221451736  1.0000
  H   H836      1.0  0.25286512132666283  0.9618443318564311  0.9619507879465983  1.0000
  H   H837      1.0  0.26013623356831983  0.9083925543370731  0.9255503834884549  1.0000
  H   H838      1.0  0.2980840948471627  0.8646309691387547  0.9169018842690498  1.0000
  H   H839      1.0  0.34876373868691724  0.9245316696045605  0.8644922174691035  1.0000
  H   H840      1.0  0.31204094562129275  0.966657708179836  0.8702989533880146  1.0000
  C   C1321     1.0  0.13833234544529938  0.34332014648672693  0.20399091104593692  1.0000
  C   C1322     1.0  0.1386604612407562  0.31275780916320106  0.21376816659728626  1.0000
  C   C1323     1.0  0.1109593693225169  0.29725712306648644  0.21936822882161602  1.0000
  C   C1324     1.0  0.08239043439178075  0.3112854271179423  0.2150837241531792  1.0000
  C   C1325     1.0  0.08237906905686672  0.34188662129786757  0.20432079405844178  1.0000
  C   C1326     1.0  0.1098654664060003  0.35813220736864854  0.19993891428390412  1.0000
  H   H841      1.0  0.1602709924632251  0.30071712784478954  0.21748233135856102  1.0000
  H   H842      1.0  0.11394536535316103  0.2733281150508194  0.22711849236841733  1.0000
  H   H843      1.0  0.060953481836248914  0.35357457699606626  0.1991857476469201  1.0000
  H   H844      1.0  0.10819207389038886  0.38152058331309713  0.1915720079733663  1.0000
  C   C1327     1.0  0.02874980229493973  0.3388883211519185  0.24830055881594426  1.0000
  C   C1328     1.0  0.022279343034958154  0.3146525729442626  0.2306995115764522  1.0000
  C   C1329     1.0  0.9914413867481032  0.307593941552275  0.22532202102321006  1.0000
  C   C1330     1.0  0.9676597644151754  0.32698725579921095  0.2347336231149154  1.0000
  C   C1331     1.0  0.9739314566800144  0.35238669791097954  0.250860133033452  1.0000
  C   C1332     1.0  0.004676107062802748  0.3579812831112374  0.25809768683792644  1.0000
  C   C1333     1.0  0.05002862531475838  0.2929848299079527  0.21848589112551864  1.0000
  C   C1334     1.0  0.05031251739903264  0.26419889592013485  0.23950301606679314  1.0000
  C   C1335     1.0  0.03470458904245355  0.2360624174575592  0.2342745690432972  1.0000
  C   C1336     1.0  0.0380629267697008  0.209893074594665  0.2504368494089728  1.0000
  C   C1337     1.0  0.05704094351035396  0.21208787631366782  0.2714499998561208  1.0000
  C   C1338     1.0  0.07059999602274433  0.24026012023680204  0.27831593845976144  1.0000
  C   C1339     1.0  0.06726422294935246  0.2667559863736717  0.2625232860478563  1.0000
  C   C1340     1.0  0.029295732624807558  0.3003655928400447  0.16963339656884774  1.0000
  C   C1341     1.0  0.031917577675910636  0.29384183058343494  0.14287253144056816  1.0000
  C   C1342     1.0  0.050345831860358015  0.26915223874643984  0.1331725797999805  1.0000
  C   C1343     1.0  0.06334135903178227  0.24945972587996704  0.1516331113943422  1.0000
  C   C1344     1.0  0.06279824472781577  0.25651189495034654  0.17823638783050352  1.0000
  C   C1345     1.0  0.04608833994633654  0.28254712697353934  0.18802477196540723  1.0000
  C   C1346     1.0  0.052420160701836416  0.2625684587787499  0.10198154479352549  1.0000
  C   C1347     1.0  0.956695684132264  0.22774683565558965  0.09236148048488178  1.0000
  C   C1348     1.0  0.9635917300538268  0.2577079799045584  0.08302579123099378  1.0000
  C   C1349     1.0  0.9938353233849381  0.26863216820442765  0.08580833456900178  1.0000
  C   C1350     1.0  0.01732058369112366  0.2501044092958217  0.09676581615123453  1.0000
  C   C1351     1.0  0.009228696491314192  0.22005624468024265  0.10614204524521349  1.0000
  C   C1352     1.0  0.9798177055446678  0.20804540194575835  0.10261408553376827  1.0000
  C   C1353     1.0  0.07991235480263066  0.23843501442237658  0.09402917822038835  1.0000
  C   C1354     1.0  0.11034704621045602  0.244598794915628  0.10238475722266548  1.0000
  C   C1355     1.0  0.13308255193798696  0.22291320000500817  0.09804182749056815  1.0000
  C   C1356     1.0  0.12772109605026352  0.19589497036015194  0.08443633919651163  1.0000
  C   C1357     1.0  0.09828331869861098  0.19041047186123058  0.07306968344394903  1.0000
  C   C1358     1.0  0.07501947361698894  0.21254799556397722  0.07766717952485283  1.0000
  C   C1359     1.0  0.060326232442962084  0.2898513479409167  0.05793461108528405  1.0000
  C   C1360     1.0  0.07512900528538585  0.31091453349577614  0.04112668544189502  1.0000
  C   C1361     1.0  0.08997672598142432  0.33716518912240573  0.051836544746895724  1.0000
  C   C1362     1.0  0.08942671618841064  0.3425198567102951  0.07888317600287532  1.0000
  C   C1363     1.0  0.07596585470732028  0.320467076023337  0.09527239998317782  1.0000
  C   C1364     1.0  0.061774482063410054  0.29292383680917594  0.08536557592330248  1.0000
  H   H845      1.0  0.052466020981235095  0.3435752632373481  0.2542324912998422  1.0000
  H   H846      1.0  0.9857836748193851  0.2877136132477107  0.21219227967610332  1.0000
  H   H847      1.0  0.9432622659848129  0.32302490457337835  0.22910375218463644  1.0000
  H   H848      1.0  0.011045968684246121  0.37827088635619677  0.2707226674309594  1.0000
  H   H849      1.0  0.019483700146078586  0.2334158811148698  0.21744258641729539  1.0000
  H   H850      1.0  0.026170759471362715  0.1874155555755971  0.24618016619942196  1.0000
  H   H851      1.0  0.08633807072387367  0.24064213177381202  0.29498695407363734  1.0000
  H   H852      1.0  0.07831697511256762  0.289110517642538  0.2685386829084121  1.0000
  H   H853      1.0  0.015154795840906177  0.32048068724891  0.17564064571644408  1.0000
  H   H854      1.0  0.01974374661687861  0.3083498883312412  0.1291809953486715  1.0000
  H   H855      1.0  0.07575723088358012  0.22803109925889695  0.14603384406883776  1.0000
  H   H856      1.0  0.07612901012462901  0.24260567328492935  0.19096550016965252  1.0000
  H   H857      1.0  0.9456881062797828  0.2725301479358304  0.07505494326016814  1.0000
  H   H858      1.0  0.9987002526408186  0.2932564494761304  0.0804381968298938  1.0000
  H   H859      1.0  0.025886913841202563  0.2059881578365948  0.11684217833275116  1.0000
  H   H860      1.0  0.9730150163092364  0.18525536399954542  0.11035838733937972  1.0000
  H   H861      1.0  0.11612932034625181  0.2668356702793043  0.11301215706768701  1.0000
  H   H862      1.0  0.1554670512699485  0.22721111267462268  0.10735128508322081  1.0000
  H   H863      1.0  0.09465350521218482  0.16937135584536134  0.06099834988274651  1.0000
  H   H864      1.0  0.054079870930953344  0.20829955770763914  0.06728182637213907  1.0000
  H   H865      1.0  0.051014381944874954  0.26815873197893697  0.04949697007244058  1.0000
  H   H866      1.0  0.07577550367789268  0.30688646662628993  0.019636595699559223  1.0000
  H   H867      1.0  0.10054830778463533  0.3629576464052524  0.08791640625373175  1.0000
  H   H868      1.0  0.0791007470938599  0.32305698123409626  0.11674857899607055  1.0000
  C   C1365     1.0  0.9753471692604754  0.33950376076178906  0.7908905479863138  1.0000
  C   C1366     1.0  0.9650333951024076  0.3339330836270072  0.8164346217377456  1.0000
  C   C1367     1.0  0.9775438803522072  0.30885232087717357  0.8300313661447236  1.0000
  C   C1368     1.0  0.0014033160702024983  0.2896563215648585  0.8194313903091753  1.0000
  C   C1369     1.0  0.011826394701994758  0.2969440786541002  0.7946126617358417  1.0000
  C   C1370     1.0  0.9994463770441012  0.32189993684366663  0.7801514648563358  1.0000
  H   H869      1.0  0.9462858977217993  0.3479728260693941  0.8248208043447972  1.0000
  H   H870      1.0  0.9701276453482914  0.30603234481475483  0.8502595540018751  1.0000
  H   H871      1.0  0.030834322716468243  0.2833983536298144  0.7862801347994987  1.0000
  H   H872      1.0  0.007354975824774179  0.3259631017273461  0.760026613846475  1.0000
  C   C1371     1.0  0.023737661281458156  0.22195415101581475  0.7981579104967375  1.0000
  C   C1372     1.0  0.03472362954805841  0.23384496542748595  0.8218121122909877  1.0000
  C   C1373     1.0  0.060891771649904905  0.21910142786281872  0.8321756057260054  1.0000
  C   C1374     1.0  0.07777678483183594  0.19718903934940674  0.8180383301178145  1.0000
  C   C1375     1.0  0.06855568353167178  0.1885413134395553  0.7930606217794182  1.0000
  C   C1376     1.0  0.0411044242929981  0.2005406764454887  0.7831104757335632  1.0000
  C   C1377     1.0  0.015405861261646558  0.2607890990588177  0.8367760826775041  1.0000
  C   C1378     1.0  0.9900989306139446  0.2390958192786186  0.8509232945210115  1.0000
  C   C1379     1.0  0.9973085463372607  0.22082924448299843  0.8725564660519035  1.0000
  C   C1380     1.0  0.9759329954519426  0.19901708117317746  0.8827530307336054  1.0000
  C   C1381     1.0  0.9468304251846682  0.19623392965930006  0.8717893886854764  1.0000
  C   C1382     1.0  0.9397211879530579  0.21403000034331365  0.8496872268476497  1.0000
  C   C1383     1.0  0.9613099625228798  0.23497040970475763  0.8392223838124048  1.0000
  C   C1384     1.0  0.06551435339726377  0.2942032640487217  0.8433141255157032  1.0000
  C   C1385     1.0  0.08471330380604346  0.3119814089543198  0.8580932819253342  1.0000
  C   C1386     1.0  0.08118237890430112  0.3140909315956719  0.8852390768097717  1.0000
  C   C1387     1.0  0.05299267290131149  0.3042197210535056  0.896121241728306  1.0000
  C   C1388     1.0  0.031169320437371306  0.2888908626498492  0.8802550611750595  1.0000
  C   C1389     1.0  0.03825296736810668  0.28142588535235247  0.8543453339639836  1.0000
  C   C1390     1.0  0.11177767507771333  0.31859936863784005  0.9025142155308854  1.0000
  C   C1391     1.0  0.1426591556852523  0.21887026595600176  0.8934861521223935  1.0000
  C   C1392     1.0  0.1540936057612645  0.24275801825748966  0.8775066984865398  1.0000
  C   C1393     1.0  0.14465588890912692  0.2736567416769836  0.8803107040928313  1.0000
  C   C1394     1.0  0.12424038713788402  0.28232841659322516  0.9003878611731733  1.0000
  C   C1395     1.0  0.11256925732569291  0.2579664802565248  0.9163196208795081  1.0000
  C   C1396     1.0  0.12114269637467141  0.22650477878961528  0.9124365401178544  1.0000
  C   C1397     1.0  0.1061769337069424  0.33155045285820695  0.9325713273630315  1.0000
  C   C1398     1.0  0.0824728221917881  0.3536062649235933  0.938493323611613  1.0000
  C   C1399     1.0  0.07932662564043735  0.365756756371957  0.9635624453149203  1.0000
  C   C1400     1.0  0.0990523008294607  0.35679210558590635  0.98359588295987  1.0000
  C   C1401     1.0  0.12334022688206382  0.33604463153475794  0.9775288176756689  1.0000
  C   C1402     1.0  0.1253342508839966  0.3222673922799817  0.9524179637840327  1.0000
  C   C1403     1.0  0.1685342096619014  0.3417085488134492  0.8973990415899965  1.0000
  C   C1404     1.0  0.18834063089148279  0.3662331836582742  0.8913796702353142  1.0000
  C   C1405     1.0  0.17703783727627967  0.3957042808332027  0.8835797255119308  1.0000
  C   C1406     1.0  0.14577560207460524  0.39837701037186374  0.8783751254531943  1.0000
  C   C1407     1.0  0.1260564850453936  0.3723764521416127  0.8822562189677847  1.0000
  C   C1408     1.0  0.1369222082207992  0.34381891684655075  0.8926296486381189  1.0000
  H   H873      1.0  0.0028830832051982558  0.23140248659232984  0.7897458936778631  1.0000
  H   H874      1.0  0.06943316710152746  0.2254618898777805  0.851736078569894  1.0000
  H   H875      1.0  0.09930202692326265  0.18705383435801354  0.8253533865577569  1.0000
  H   H876      1.0  0.033208398895018254  0.193905629043235  0.7631724259476511  1.0000
  H   H877      1.0  0.019623140354037893  0.22371741300853176  0.882476803391809  1.0000
  H   H878      1.0  0.9819573464814677  0.18580978622068825  0.9002408048904903  1.0000
  H   H879      1.0  0.9168129980037353  0.21045035828302877  0.84018818588516  1.0000
  H   H880      1.0  0.9548102728777895  0.24771873897902963  0.821279530078028  1.0000
  H   H881      1.0  0.07056873829823777  0.2912568371484831  0.8223864266922764  1.0000
  H   H882      1.0  0.10656755105798757  0.3205930043923459  0.8493334968703854  1.0000
  H   H883      1.0  0.04970019114915636  0.30363513347613275  0.9171959968344157  1.0000
  H   H884      1.0  0.010396194749661802  0.2804685239456284  0.8898733369613462  1.0000
  H   H885      1.0  0.16991669202805576  0.2359387421554584  0.8612649282383329  1.0000
  H   H886      1.0  0.15227167430461375  0.2902871839130101  0.8658693796839583  1.0000
  H   H887      1.0  0.09549785428951575  0.2635385084425663  0.9310371726301775  1.0000
  H   H888      1.0  0.11239076625212857  0.20791688118556212  0.9252085769935702  1.0000
  H   H889      1.0  0.06680451122993561  0.3636048212896072  0.9233862714365404  1.0000
  H   H890      1.0  0.06079966648876089  0.38288963057373776  0.9664817112508821  1.0000
  H   H891      1.0  0.14131587901383788  0.33039097082874314  0.9918588562489982  1.0000
  H   H892      1.0  0.14418805806503515  0.30560435780205064  0.9484096864573921  1.0000
  H   H893      1.0  0.17813971494265932  0.32051746786484614  0.9062581889981095  1.0000
  H   H894      1.0  0.21320986432220554  0.363104965081575  0.8958589251159527  1.0000
  H   H895      1.0  0.13556574576518007  0.42009854602565627  0.8711276354134034  1.0000
  H   H896      1.0  0.10114661196063027  0.3758130799626459  0.8800781961864272  1.0000
  C   C1409     1.0  0.11012286900516585  0.36063763457573894  0.035476942040983284  1.0000
  C   C1410     1.0  0.09440319100431968  0.3733686082988291  0.010441603537751698  1.0000
  H   H897      1.0  0.13175594097901422  0.3481038301700086  0.030534658594600028  1.0000
  H   H898      1.0  0.11734350658956938  0.38149385835862554  0.04795287910427004  1.0000
  H   H899      1.0  0.06878694134915118  0.3753111709336221  0.013915311404369302  1.0000
  H   H900      1.0  0.10184834334098923  0.3984998677206486  0.007832348143662182  1.0000
  C   C1411     1.0  0.14504947617555666  0.16898587747420865  0.8655514201538331  1.0000
  C   C1412     1.0  0.1569466479388844  0.1862896562474698  0.8904873963039004  1.0000
  H   H901      1.0  0.14169636102633665  0.18602857262823738  0.8490572695285892  1.0000
  H   H902      1.0  0.12155622893487751  0.1585373653516271  0.8698538100458394  1.0000
  H   H903      1.0  0.18244718821739522  0.19061023488995893  0.8884007868874539  1.0000
  H   H904      1.0  0.1539939199787702  0.17182025845060556  0.9091714931928815  1.0000
  C   C1413     1.0  0.15259891606820958  0.15039078915731088  0.10801741029883306  1.0000
  C   C1414     1.0  0.15267959596489172  0.17024619608434846  0.08263947040189168  1.0000
  H   H905      1.0  0.12821560194222137  0.14631282582177235  0.11444873796973384  1.0000
  H   H906      1.0  0.16244620906665452  0.1636862950755193  0.12526413138694192  1.0000
  H   H907      1.0  0.14914579643969417  0.1549082269348457  0.06494522127513165  1.0000
  H   H908      1.0  0.1760829519043082  0.18058647504380246  0.0785980060492943  1.0000
  C   C1415     1.0  0.33039348220975795  0.012998920888690702  0.02375417161468052  1.0000
  C   C1416     1.0  0.332989357376578  0.02543462255106066  0.9947820966790867  1.0000
  H   H909      1.0  0.3508273352042364  0.023467852430040237  0.034950321569213516  1.0000
  H   H910      1.0  0.33497011312787073  0.9870376930195829  0.023080494860227896  1.0000
  H   H911      1.0  0.35815725521126407  0.022034219447210512  0.988289760523343  1.0000
  H   H912      1.0  0.3284848691051703  0.05132520626884573  0.9949987066089844  1.0000
  C   C1417     1.0  0.10530341997953159  0.956309458060825  0.9135792071792417  1.0000
  C   C1418     1.0  0.12908813830156876  0.9425647341720272  0.9327601158340433  1.0000
  H   H913      1.0  0.11589611578281277  0.9729125022963074  0.8996883502068979  1.0000
  H   H914      1.0  0.08902075923478109  0.9716415225189661  0.9248369617927364  1.0000
  H   H915      1.0  0.12371852743032559  0.9517329415171873  0.9529108010557268  1.0000
  H   H916      1.0  0.12571556472238085  0.9167372226949032  0.9357529099113465  1.0000
  C   C1419     1.0  0.13678962959405985  0.9047759604456634  0.09404507619689462  1.0000
  C   C1420     1.0  0.1439426586740982  0.9215836678834007  0.06770709724368151  1.0000
  H   H917      1.0  0.1431131295643559  0.9208160978139672  0.11109386747750054  1.0000
  H   H918      1.0  0.15246620079049544  0.8841691884146379  0.09526007905138546  1.0000
  H   H919      1.0  0.12196574411075363  0.9330456318244124  0.06083837649415228  1.0000
  H   H920      1.0  0.1498884221231294  0.9041074875254191  0.05206030876622132  1.0000
  C   C1421     1.0  0.9579611321662836  0.7459533059133974  0.05791573223818287  1.0000
  C   C1422     1.0  0.9724774872968766  0.7353390595295279  0.0313772513494317  1.0000
  H   H921      1.0  0.9322727576979809  0.7483336441187007  0.056497036559705574  1.0000
  H   H922      1.0  0.9600916127637276  0.7246428050192606  0.07148167431568007  1.0000
  H   H923      1.0  0.9641014819538709  0.7106445102388232  0.02856728400195041  1.0000
  H   H924      1.0  0.9981310012591654  0.7345501561600124  0.03254376537557846  1.0000
  C   C1423     1.0  0.9145528940392703  0.9397683291228416  0.8815745932250789  1.0000
  C   C1424     1.0  0.9013044565687333  0.9258721418297351  0.9074882949302812  1.0000
  H   H925      1.0  0.9144805156983032  0.9199433725823392  0.8670676896631174  1.0000
  H   H926      1.0  0.938835277038931  0.947700000233001  0.8840666010424351  1.0000
  H   H927      1.0  0.9081027760103  0.9411645282369475  0.9243401500269158  1.0000
  H   H928      1.0  0.8753399463270912  0.9259415500550803  0.9075260526244835  1.0000
  C   C1425     1.0  0.9236154819608553  0.17137454265285812  0.8828464313455797  1.0000
  C   C1426     1.0  0.9078724378469106  0.18171418068256345  0.909513299687766  1.0000
  H   H929      1.0  0.9058746747838285  0.16610414644732513  0.8679023334296961  1.0000
  H   H930      1.0  0.936350470067445  0.1486609554628694  0.8857319140814657  1.0000
  H   H931      1.0  0.9224575557127155  0.174709903871865  0.9262359837252873  1.0000
  H   H932      1.0  0.9062189071065652  0.20835941737501304  0.9103737776661672  1.0000
  C   C1427     1.0  0.9120241594567502  0.9727928140575232  0.12982963279012688  1.0000
  C   C1428     1.0  0.9088136997000181  0.9486953053656486  0.10675391861599813  1.0000
  H   H933      1.0  0.9364881681739412  0.9794145981712036  0.1333226169532583  1.0000
  H   H934      1.0  0.9059851155677777  0.9598672356442993  0.14845609951427266  1.0000
  H   H935      1.0  0.9111025677348373  0.9623224565883981  0.08746391009742233  1.0000
  H   H936      1.0  0.8862484529961767  0.9365991035446021  0.10636044369746822  1.0000
  C   C1429     1.0  0.9230810858591243  0.21672169687461554  0.09346440260500351  1.0000
  C   C1430     1.0  0.9110685872522927  0.19667940969205228  0.06911506178801709  1.0000
  H   H937      1.0  0.9197140890990428  0.2028333115147003  0.111465880127747  1.0000
  H   H938      1.0  0.9079246994927587  0.2371013224555869  0.09740372245854817  1.0000
  H   H939      1.0  0.8986936752281524  0.21344092080566093  0.05582395597937183  1.0000
  H   H940      1.0  0.9313489946228557  0.186685938842199  0.0578702242804337  1.0000
  C   C1431     1.0  0.7265566365969728  0.09592016338149384  0.048888872471076095  1.0000
  C   C1432     1.0  0.7248877981320571  0.07909900849620452  0.021975585493042793  1.0000
  H   H941      1.0  0.7063668717007235  0.08701248333480742  0.06163566001594117  1.0000
  H   H942      1.0  0.721332014131611  0.12142457789810032  0.04703278371397035  1.0000
  H   H943      1.0  0.6997741942070691  0.08014246790401024  0.017108817435064205  1.0000
  H   H944      1.0  0.7310411480187378  0.05410741423310531  0.024316562533589492  1.0000
  C   C1433     1.0  0.31630974104624476  0.14619160833423148  0.28329001785915725  1.0000
  C   C1434     1.0  0.3177712264971988  0.13767370582595076  0.25330047242716275  1.0000
  H   H945      1.0  0.3328635789250349  0.167132475689759  0.28636826356018164  1.0000
  H   H946      1.0  0.32752927767457735  0.12703334916105158  0.29523933445067424  1.0000
  H   H947      1.0  0.3103617381549223  0.1582583220961358  0.242148041908022  1.0000
  H   H948      1.0  0.3433187972211066  0.13381584208253652  0.2477481041323518  1.0000
  C   C1435     1.0  0.065671585761954  0.1816638282635791  0.2856647780997797  1.0000
  C   C1436     1.0  0.0893971223109813  0.1616100654844175  0.2690672906272452  1.0000
  H   H949      1.0  0.07499757773281303  0.18601537721646222  0.3057856546155138  1.0000
  H   H950      1.0  0.04494829806780176  0.1669013500346411  0.28822037782316084  1.0000
  H   H951      1.0  0.08404967826307744  0.13661544329243253  0.2710187672433885  1.0000
  H   H952      1.0  0.08841923221942447  0.16545700067054162  0.24738841241389767  1.0000
  C   C1437     1.0  0.28522024602870566  0.23899904163432215  0.5194544588596359  1.0000
  C   C1438     1.0  0.26868704705373464  0.2505170266229178  0.4940475051555707  1.0000
  H   H953      1.0  0.3076926505642112  0.2509873460203665  0.5192497724121179  1.0000
  H   H954      1.0  0.29205245873402313  0.2136715003098731  0.5171830354663042  1.0000
  H   H955      1.0  0.26120906300066693  0.27565787010244247  0.496907153679634  1.0000
  H   H956      1.0  0.28678440594491106  0.2508303834772203  0.4785330673325251  1.0000
  C   C1439     1.0  0.342618838096589  0.1274309590387304  0.7559567318608726  1.0000
  C   C1440     1.0  0.3445868287977977  0.09438407993965706  0.7698495760802799  1.0000
  H   H957      1.0  0.34517448962977787  0.14653758534785102  0.7712267382951346  1.0000
  H   H958      1.0  0.3628922604364557  0.12995516052410191  0.7421294667945538  1.0000
  H   H959      1.0  0.3636174751995975  0.09389576671063969  0.7844677654777851  1.0000
  H   H960      1.0  0.3532044321526657  0.07621778742494024  0.7548319500230549  1.0000
  C   C1441     1.0  0.09038201144667546  0.16726063082202716  0.7776058013682711  1.0000
  C   C1442     1.0  0.11612047610216308  0.1874680153014117  0.7642038071734946  1.0000
  H   H961      1.0  0.10080635104583775  0.1496249694964266  0.7905904736797582  1.0000
  H   H962      1.0  0.07664079148065363  0.15356675195762268  0.7623099607221866  1.0000
  H   H963      1.0  0.1290944161013181  0.2007374970571292  0.7793704767604659  1.0000
  H   H964      1.0  0.1043446205766082  0.20533146545842282  0.7524989219707614  1.0000
  C   C1443     1.0  0.9835480286940858  0.9369980446313149  0.2961793023116068  1.0000
  C   C1444     1.0  0.010535024303258034  0.9173984374989713  0.30770533527864463  1.0000
  H   H965      1.0  0.9779024854977864  0.9305462219047418  0.2756689253714693  1.0000
  H   H966      1.0  0.9918060754646949  0.961453022101697  0.29336138597587236  1.0000
  H   H967      1.0  0.0049287850117027965  0.9096135573476684  0.3283548195132119  1.0000
  H   H968      1.0  0.03163174356531773  0.9322642432518032  0.3096746971183575  1.0000
  C   C1445     1.0  0.7657059487810652  0.9717463044910413  0.3065050380524221  1.0000
  C   C1446     1.0  0.7738922572694026  0.9777672367441271  0.27651747986749087  1.0000
  H   H969      1.0  0.7464718910427254  0.9531971637230594  0.3080073968322636  1.0000
  H   H970      1.0  0.7546212607152027  0.9930895621707425  0.3157834945908875  1.0000
  H   H971      1.0  0.7531040066607317  0.9775903710054964  0.2637136470387625  1.0000
  H   H972      1.0  0.7864255062792587  0.9557235404872685  0.26953230644005327  1.0000
  C   C1447     1.0  0.7856607383985291  0.8396016634617027  0.5443566518096276  1.0000
  C   C1448     1.0  0.8043204419905238  0.8395321790304305  0.518089220127161  1.0000
  H   H973      1.0  0.7722751348368404  0.8176322095997933  0.5436094469138334  1.0000
  H   H974      1.0  0.7674848650082488  0.8589317436031688  0.5433848879956824  1.0000
  H   H975      1.0  0.823097365723199  0.820673708046176  0.5167855860536477  1.0000
  H   H976      1.0  0.7876101178703099  0.8309276824165144  0.5028072902105194  1.0000
  C   C1449     1.0  0.9607898286495739  0.911385090750819  0.7856501774804381  1.0000
  C   C1450     1.0  0.9649983812423342  0.9458616829766768  0.7763438994830867  1.0000
  H   H977      1.0  0.9609837582909581  0.8955794450481042  0.7679915000761108  1.0000
  H   H978      1.0  0.9380447677042613  0.9079767849940727  0.7950657540662701  1.0000
  H   H979      1.0  0.9867440018058438  0.9496380727810864  0.7645038814800503  1.0000
  H   H980      1.0  0.9664094907215676  0.9633350157559952  0.7933765940624801  1.0000
  C   C1451     1.0  0.7206854776848034  0.9689260125173818  0.7935117268627833  1.0000
  C   C1452     1.0  0.7366576963205063  0.9385998352286422  0.7810854709760786  1.0000
  H   H981      1.0  0.7010426784893337  0.9614712681399329  0.80703494312842  1.0000
  H   H982      1.0  0.7099815684177675  0.9828854270992347  0.7772520713910068  1.0000
  H   H983      1.0  0.719435886706181  0.9250786857936552  0.7684942735831214  1.0000
  H   H984      1.0  0.7429270554360392  0.9219272439377695  0.7974663485187151  1.0000
  C   C1453     1.0  0.14641489432174554  0.7405196826004748  0.29082565872312405  1.0000
  C   C1454     1.0  0.1353825687923895  0.7385875692469464  0.2616369738576324  1.0000
  H   H985      1.0  0.1668582815344408  0.7245548096706003  0.2932799088462778  1.0000
  H   H986      1.0  0.12860609697141698  0.7290924804662039  0.30409450736466054  1.0000
  H   H987      1.0  0.13128294144868144  0.7136107921110725  0.256517825422617  1.0000
  H   H988      1.0  0.15486424991745582  0.7452959664949403  0.24849530902814596  1.0000
  C   C1455     1.0  0.13116036036226858  0.9626785996710041  0.2711121678553628  1.0000
  C   C1456     1.0  0.14392537487158638  0.9961392650904475  0.27892403606112587  1.0000
  H   H989      1.0  0.13599304470782644  0.9576376081588656  0.24935578700654723  1.0000
  H   H990      1.0  0.10485963340476276  0.9638879424440513  0.27296626936540525  1.0000
  H   H991      1.0  0.14878479040625947  0.9975066351850194  0.3005373351213851  1.0000
  H   H992      1.0  0.1260192850585828  0.01471178901406156  0.2769864701744255  1.0000
  C   C1457     1.0  0.015288103350830085  0.8620592972475191  0.4594217123249384  1.0000
  C   C1458     1.0  0.002887195309509538  0.865668162376007  0.4886402058963793  1.0000
  H   H993      1.0  0.004977561703661815  0.8807019470960556  0.4467073056140577  1.0000
  H   H994      1.0  0.0063712156742705695  0.8398791099044963  0.4501671027512323  1.0000
  H   H995      1.0  0.0026987963553668504  0.8420724267625909  0.49739005471601166  1.0000
  H   H996      1.0  0.01934905871850745  0.8809604031438278  0.49964359288577387  1.0000
  C   C1459     1.0  0.16169273102892226  0.0327051103518925  0.4578955065803375  1.0000
  C   C1460     1.0  0.17411339209915905  0.016556238760905506  0.4832348938842512  1.0000
  H   H997      1.0  0.1750479286741444  0.022008482328834233  0.4406998577417551  1.0000
  H   H998      1.0  0.13712753219990112  0.024290448082461502  0.4552127230449063  1.0000
  H   H999      1.0  0.16120056945626607  0.02377921971450503  0.5020541235735354  1.0000
  H   H1000     1.0  0.19811343445299812  0.02412259060167732  0.4863886549736804  1.0000
  C   C1461     1.0  0.9889931619253273  0.885543445611722  0.6808844995512541  1.0000
  C   C1462     1.0  0.9846902399090112  0.859408999334677  0.6599528262337007  1.0000
  H   H1001     1.0  0.9704455005252541  0.8822856909517754  0.6958087249965047  1.0000
  H   H1002     1.0  0.9851166994553727  0.9095149999515451  0.6719836199548122  1.0000
  H   H1003     1.0  0.997667733702422  0.8655313761312255  0.641813235040059  1.0000
  H   H1004     1.0  0.9950303896224258  0.8366857828359849  0.6657377024349157  1.0000
  C   C1463     1.0  0.1865005940576597  0.007294121804407805  0.6421033731112983  1.0000
  C   C1464     1.0  0.16655914383841194  0.021084693469091143  0.6656085313758023  1.0000
  H   H1005     1.0  0.20869047343136715  0.02021337239016563  0.6396252760233851  1.0000
  H   H1006     1.0  0.17469332798100007  0.0136160521304034  0.6231172146686983  1.0000
  H   H1007     1.0  0.16655860441653778  0.003189039641859681  0.6813177194110496  1.0000
  H   H1008     1.0  0.14178597208154184  0.024191554907701418  0.6593248561617033  1.0000
  C   C1465     1.0  0.20962961087849385  0.7893183018776831  0.5562244912715499  1.0000
  C   C1466     1.0  0.2231782947176523  0.800656493837451  0.5293648599642252  1.0000
  H   H1009     1.0  0.22122501679722376  0.7668779069638616  0.5604036718456328  1.0000
  H   H1010     1.0  0.1851365922519233  0.7833016503807418  0.5533648427474867  1.0000
  H   H1011     1.0  0.228170663157286  0.7794632108805909  0.5167677008300782  1.0000
  H   H1012     1.0  0.24703854742305326  0.8109452135189184  0.5319800770995049  1.0000
  C   C1467     1.0  0.14577937047724002  0.7604065142584743  0.7932593464857464  1.0000
  C   C1468     1.0  0.12938032468071556  0.7517171208040161  0.8199997429692742  1.0000
  H   H1013     1.0  0.14569778449834783  0.739504883313289  0.7796765128082113  1.0000
  H   H1014     1.0  0.171258247931754  0.763451181539658  0.7967787610348195  1.0000
  H   H1015     1.0  0.14718527665893932  0.7463645090019104  0.8347788993789053  1.0000
  H   H1016     1.0  0.11698230198719321  0.7283660614202857  0.818042304611941  1.0000
  C   C1469     1.0  0.10893519900838412  0.031026210166896995  0.7696051446914962  1.0000
  C   C1470     1.0  0.08863845100881866  0.0012477127259948873  0.7759861950116959  1.0000
  H   H1017     1.0  0.11078078375487058  0.03227148824080328  0.7478149806426048  1.0000
  H   H1018     1.0  0.09603390419312245  0.05266944965258487  0.7750064822094977  1.0000
  H   H1019     1.0  0.06638952971142895  0.004551598431426607  0.7659207886361706  1.0000
  H   H1020     1.0  0.08191825831039604  0.0007928415732398886  0.7975676981189427  1.0000
  C   C1471     1.0  0.96381026036536  0.15424390726061224  0.2722290007049275  1.0000
  C   C1472     1.0  0.949826891992794  0.12420481589299855  0.2855395815347929  1.0000
  H   H1021     1.0  0.9588911976010661  0.15467045671345733  0.2511661690811975  1.0000
  H   H1022     1.0  0.9897896530673687  0.15267671959519663  0.2732703181660875  1.0000
  H   H1023     1.0  0.9475368666931125  0.1262648840556872  0.3072462812070264  1.0000
  H   H1024     1.0  0.9670622121183743  0.10427236351532972  0.28142001837260855  1.0000
  C   C1473     1.0  0.9428366094020167  0.37955637915448565  0.2889377740130058  1.0000
  C   C1474     1.0  0.9493320674957075  0.3763265307460667  0.25896412655751755  1.0000
  H   H1025     1.0  0.9229421702668988  0.39623347550551147  0.29290829364544396  1.0000
  H   H1026     1.0  0.9617638833932137  0.3915785468072081  0.298418929751926  1.0000
  H   H1027     1.0  0.9273200608993356  0.3704186816743232  0.24868409749915776  1.0000
  H   H1028     1.0  0.9559512331868417  0.4004159069584451  0.25166695534114464  1.0000
  C   C1475     1.0  0.053570364458704  0.2802006279711742  0.47354110270955974  1.0000
  C   C1476     1.0  0.0760200123583693  0.26271768630381553  0.4921834674102118  1.0000
  H   H1029     1.0  0.06411934816189288  0.2828853276863483  0.4537779306652164  1.0000
  H   H1030     1.0  0.05183450923040023  0.3052390513793788  0.48115424620899455  1.0000
  H   H1031     1.0  0.09062171248099936  0.28116348602116153  0.5025767695511787  1.0000
  H   H1032     1.0  0.06135418235057461  0.25267533106618967  0.5086140261294306  1.0000
  C   C1477     1.0  0.8985550869474069  0.07888576446636301  0.4997210955212419  1.0000
  C   C1478     1.0  0.9132583744398814  0.09168963198076725  0.47325295188538374  1.0000
  H   H1033     1.0  0.9132095331504233  0.08646873123143668  0.516590835841446  1.0000
  H   H1034     1.0  0.8756489771013629  0.09045391242760693  0.5032027523761127  1.0000
  H   H1035     1.0  0.901986318209066  0.080405247413011  0.4556737643635878  1.0000
  H   H1036     1.0  0.9380659158690833  0.08461125545523128  0.47341789339163626  1.0000
  C   C1479     1.0  0.079924153872947  0.2088515085571878  0.6564373861787541  1.0000
  C   C1480     1.0  0.08768867681942794  0.23633904148650556  0.6377016208661278  1.0000
  H   H1037     1.0  0.09710365157423335  0.2062439971185595  0.6727288376035431  1.0000
  H   H1038     1.0  0.08327923112178554  0.18586568428648975  0.6456486218721941  1.0000
  H   H1039     1.0  0.07574434341561993  0.2331124082902138  0.6185604571525919  1.0000
  H   H1040     1.0  0.0767548695886821  0.25801778475516096  0.6459506834258131  1.0000
  C   C1481     1.0  0.8659972202700499  0.08805972372110034  0.664585099138212  1.0000
  C   C1482     1.0  0.8441562842083566  0.09548410477479535  0.6415827143807182  1.0000
  H   H1041     1.0  0.8906593777682212  0.09067245717595057  0.657611849193154  1.0000
  H   H1042     1.0  0.8639593305960299  0.10703086432633442  0.6799604296668277  1.0000
  H   H1043     1.0  0.8213459403492736  0.08398382404678933  0.6440210665273658  1.0000
  H   H1044     1.0  0.8541193897147454  0.08578669266593413  0.6227058545265989  1.0000
  C   C1483     1.0  0.8426372856360137  0.3141059191085688  0.5441440163738563  1.0000
  C   C1484     1.0  0.8322115648211706  0.29956709205840076  0.5170876476072667  1.0000
  H   H1045     1.0  0.8284953553747616  0.336221305574137  0.5464174270142514  1.0000
  H   H1046     1.0  0.8662421951339428  0.3221378696175495  0.542283953122624  1.0000
  H   H1047     1.0  0.8265501007369972  0.3191659170488504  0.5025290756216599  1.0000
  H   H1048     1.0  0.8091581593763256  0.28709544646762686  0.518723151940348  1.0000
  C   C1485     1.0  0.9297386909076357  0.34721985308335834  0.7601021292348799  1.0000
  C   C1486     1.0  0.9581704308707393  0.3632922076942314  0.7736948991477313  1.0000
  H   H1049     1.0  0.9188073117053871  0.36512314428536724  0.747379773535746  1.0000
  H   H1050     1.0  0.9117986845069602  0.3439613701969454  0.7763717209419727  1.0000
  H   H1051     1.0  0.9504952378937963  0.3841231121728234  0.7859462772928673  1.0000
  H   H1052     1.0  0.9751966903651867  0.37275825730733964  0.7592118425505293  1.0000
  C   C1487     1.0  0.90483887733631  0.1122621943702049  0.7707617224823266  1.0000
  C   C1488     1.0  0.9405453572393134  0.10697585268909626  0.7655451989412102  1.0000
  H   H1053     1.0  0.8927009559985921  0.11107930843695268  0.7517179338748914  1.0000
  H   H1054     1.0  0.9012734367580747  0.13721877741831878  0.7769122521431855  1.0000
  H   H1055     1.0  0.9448441206192149  0.0842483569692262  0.7549094526585228  1.0000
  H   H1056     1.0  0.9528748164740832  0.10546226436190455  0.7846386687252274  1.0000
  C   C1489     1.0  0.26776624914537345  0.37714382580383493  0.6896323611238231  1.0000
  C   C1490     1.0  0.27589945864510185  0.3752732044040623  0.6596368539506388  1.0000
  H   H1057     1.0  0.256326802912977  0.35572229474787453  0.6975336554474338  1.0000
  H   H1058     1.0  0.25038168292232754  0.3961786307780226  0.692734453789607  1.0000
  H   H1059     1.0  0.26446695020145866  0.39527243361874537  0.648681160890763  1.0000
  H   H1060     1.0  0.30176531538622137  0.378601051501544  0.6546866215160023  1.0000
  C   C1491     1.0  0.22814468508266644  0.3284430415921938  0.39474675665041314  1.0000
  C   C1492     1.0  0.20656970905642913  0.2995707258589237  0.4011178707352965  1.0000
  H   H1061     1.0  0.2127266862661545  0.349369859843106  0.39651739378379774  1.0000
  H   H1062     1.0  0.23669975896014986  0.3282072503599853  0.3736739887913667  1.0000
  H   H1063     1.0  0.18207014979416253  0.30773237543415616  0.40485985695545723  1.0000
  H   H1064     1.0  0.21261137356988524  0.28962605691140747  0.4208114891324249  1.0000
  C   C1493     1.0  0.35672375660881  0.2807709732308054  0.5486093605250518  1.0000
  C   C1494     1.0  0.34864745162072835  0.2940048790360426  0.5770607767300657  1.0000
  H   H1065     1.0  0.3463915626491559  0.25647583158269877  0.5470652695568815  1.0000
  H   H1066     1.0  0.381903925451653  0.27671576120528407  0.5484642914894322  1.0000
  H   H1067     1.0  0.3231310542663507  0.29709622462206925  0.5793322001233976  1.0000
  H   H1068     1.0  0.35493612429326016  0.27512907007975995  0.5916809533746343  1.0000
  C   C1495     1.0  0.35341825420804435  0.7994712715965085  0.6775777204379522  1.0000
  C   C1496     1.0  0.3411332146389326  0.8309946126367959  0.6896343483708864  1.0000
  H   H1069     1.0  0.37813864332291697  0.8036470950663115  0.6746544800078637  1.0000
  H   H1070     1.0  0.3442837991266138  0.7961279725146599  0.6575919767225212  1.0000
  H   H1071     1.0  0.3404413545964132  0.8289226471540447  0.7115556707259544  1.0000
  H   H1072     1.0  0.3593135449339172  0.8485682762716731  0.6855724153735372  1.0000
  C   C1497     1.0  0.3015082310185565  0.529056745632307  0.6025611310461054  1.0000
  C   C1498     1.0  0.31072661703445764  0.5056137805339518  0.5796521469005861  1.0000
  H   H1073     1.0  0.27671204233256247  0.5355714560481709  0.5991728748032089  1.0000
  H   H1074     1.0  0.3024314994416585  0.5166613479891016  0.6213008708528582  1.0000
  H   H1075     1.0  0.3174855504308287  0.519940824253812  0.5623551484617761  1.0000
  H   H1076     1.0  0.2896316290946141  0.49142077303273607  0.5722615750722388  1.0000
  C   C1499     1.0  0.3180416937282723  0.8796603930181961  0.40492742335560883  1.0000
  C   C1500     1.0  0.31445995546485944  0.8780164758617766  0.3734971238027346  1.0000
  H   H1077     1.0  0.2964775232800402  0.8885133978697648  0.41554925890885314  1.0000
  H   H1078     1.0  0.33612651281976225  0.8976886835888641  0.40947027014227233  1.0000
  H   H1079     1.0  0.32984675010572273  0.8590584233464684  0.3649996553601391  1.0000
  H   H1080     1.0  0.3228098935490498  0.9008802422984435  0.3662317485393741  1.0000
  C   C1501     1.0  0.37227004863902513  0.5111139531876201  0.43956315242155747  1.0000
  C   C1502     1.0  0.34813210227787994  0.5016675582097524  0.4614169083764739  1.0000
  H   H1081     1.0  0.39589861675325894  0.5094687580350482  0.44799305446400134  1.0000
  H   H1082     1.0  0.3731271535917589  0.49329814757683105  0.4230391930903645  1.0000
  H   H1083     1.0  0.3258770541968565  0.5139180972883367  0.4573370901555552  1.0000
  H   H1084     1.0  0.35518604454684727  0.5112345608700982  0.48128341726810786  1.0000
  C   C1503     1.0  0.3138575417036615  0.7706406073415275  0.5828873851196097  1.0000
  C   C1504     1.0  0.296466713161042  0.7692122795374715  0.5559721108945131  1.0000
  H   H1085     1.0  0.29648343025284113  0.780194580663868  0.5978513555061261  1.0000
  H   H1086     1.0  0.33185491270214673  0.789263337895066  0.5831536762260896  1.0000
  H   H1087     1.0  0.28155314663979353  0.7913724403877557  0.5556144064231223  1.0000
  H   H1088     1.0  0.2782047413402515  0.7498392849318939  0.5569458619555214  1.0000
  C   C1505     1.0  0.7888452311046724  0.7351048229455238  0.7254206934864755  1.0000
  C   C1506     1.0  0.7922604387034721  0.729641967812833  0.6949641449946098  1.0000
  H   H1089     1.0  0.7992805921217501  0.7580100876679735  0.7314102561352087  1.0000
  H   H1090     1.0  0.8039136275591198  0.7168922077256047  0.7346097239070933  1.0000
  H   H1091     1.0  0.8068299973812953  0.7083879967310031  0.6913076103981701  1.0000
  H   H1092     1.0  0.768467886628969  0.7236082200726303  0.687309269306846  1.0000
  C   C1507     1.0  0.5143655640288848  0.6697842302645948  0.6315828871582814  1.0000
  C   C1508     1.0  0.49514015297631736  0.6800217343599079  0.6081711295057516  1.0000
  H   H1093     1.0  0.5115338011277615  0.6441278622388316  0.6337609099396389  1.0000
  H   H1094     1.0  0.503918831427238  0.6801152855332646  0.6501298639998958  1.0000
  H   H1095     1.0  0.5042570649740837  0.6676719391421787  0.5898129411351488  1.0000
  H   H1096     1.0  0.4978368917903861  0.7058492198068597  0.6051743609343216  1.0000
  C   C1509     1.0  0.8575676059005337  0.7808370458661141  0.4235717753033241  1.0000
  C   C1510     1.0  0.8708995378891999  0.8135838839022457  0.4327250352768028  1.0000
  H   H1097     1.0  0.8718334361479976  0.7613556293720198  0.4316598708508834  1.0000
  H   H1098     1.0  0.8599071519076138  0.7766996528761779  0.4021393157258236  1.0000
  H   H1099     1.0  0.8956092250946405  0.8093101714735786  0.4378163622529323  1.0000
  H   H1100     1.0  0.8592982728065273  0.820223768455514  0.4520907579084897  1.0000
  C   C1511     1.0  0.5030447531630992  0.7026918866520058  0.4293288300456532  1.0000
  C   C1512     1.0  0.4940780676601058  0.7285856802308366  0.450657952775863  1.0000
  H   H1101     1.0  0.48471683831189494  0.6995071943869519  0.41462518902442685  1.0000
  H   H1102     1.0  0.5039399833891741  0.6791161570885345  0.43785610719419793  1.0000
  H   H1103     1.0  0.5033813219255904  0.720940149530397  0.47000777743104366  1.0000
  H   H1104     1.0  0.5073408663487283  0.7505383985543557  0.4455725875409235  1.0000
  C   C1513     1.0  0.703106047899668  0.8237681889943701  0.5548572652920116  1.0000
  C   C1514     1.0  0.7115141349131895  0.8129924961261079  0.583487533732721  1.0000
  H   H1105     1.0  0.7147590450411606  0.8471317856310273  0.5521744817565805  1.0000
  H   H1106     1.0  0.6773510344314815  0.8279278433838358  0.5545631527266459  1.0000
  H   H1107     1.0  0.7112572862451881  0.8346741058092195  0.595633587783503  1.0000
  H   H1108     1.0  0.7361319298905765  0.8045561631124205  0.5836862584390493  1.0000
  C   C1515     1.0  0.7113976047721723  0.3125390541993266  0.6923469406122669  1.0000
  C   C1516     1.0  0.7306481926659945  0.2849479666667296  0.7035371288256099  1.0000
  H   H1109     1.0  0.6870672330661324  0.3053277025196709  0.6913254956217397  1.0000
  H   H1110     1.0  0.7169458923962552  0.31632437422270393  0.6709462769877788  1.0000
  H   H1111     1.0  0.7150516269703044  0.26425612281153055  0.7070565433746832  1.0000
  H   H1112     1.0  0.7392957761704599  0.29142213134203926  0.723453318893826  1.0000
  C   C1517     1.0  0.7487364988602352  0.5862729601674351  0.6059970812185206  1.0000
  C   C1518     1.0  0.7350889065892079  0.6108062630744212  0.5860073630089631  1.0000
  H   H1113     1.0  0.7506835696503747  0.5961066636751169  0.6258019854511928  1.0000
  H   H1114     1.0  0.773847750576423  0.5824798137634808  0.6007129912772528  1.0000
  H   H1115     1.0  0.7537682783407582  0.6242498673965001  0.5761983115046012  1.0000
  H   H1116     1.0  0.7229100803472951  0.5979071573834072  0.5704412567622722  1.0000
  C   C1519     1.0  0.5392011003506023  0.44378024467913707  0.6111380893712322  1.0000
  C   C1520     1.0  0.563325755014185  0.42762306082823465  0.5918757035868359  1.0000
  H   H1117     1.0  0.5450870197299137  0.43452499238585146  0.6312251826868905  1.0000
  H   H1118     1.0  0.5432940367609748  0.46950016971408154  0.6135665052825632  1.0000
  H   H1119     1.0  0.5586758136968984  0.4346132099505873  0.5711387804814843  1.0000
  H   H1120     1.0  0.5597842826476438  0.40137592308128556  0.5912437590207121  1.0000
  C   C1521     1.0  0.785286583071263  0.23602463228426532  0.38078833327791767  1.0000
  C   C1522     1.0  0.7900381376944617  0.2374068101937648  0.4113263588993781  1.0000
  H   H1121     1.0  0.7678084639327729  0.25485665996284335  0.37521410526541055  1.0000
  H   H1122     1.0  0.7751392151652626  0.2122348036657506  0.3767621707277075  1.0000
  H   H1123     1.0  0.781898805550391  0.21490114497966423  0.4209426474386016  1.0000
  H   H1124     1.0  0.8157415270392817  0.23774503997829918  0.415231299378728  1.0000
  C   C1523     1.0  0.6909373874523164  0.5940270765126711  0.43645112352045723  1.0000
  C   C1524     1.0  0.7104788643908992  0.6061372137513619  0.4608207342574892  1.0000
  H   H1125     1.0  0.6656051159222127  0.5942099124657011  0.4414271901669164  1.0000
  H   H1126     1.0  0.6931590772175825  0.6114997542312841  0.42024711096645273  1.0000
  H   H1127     1.0  0.7327045346035669  0.5928445478942408  0.46126786484672777  1.0000
  H   H1128     1.0  0.698662940548423  0.5978413283952889  0.479186871616345  1.0000
  C   C1525     1.0  0.5839311531675611  0.38996929548714065  0.4335954494905205  1.0000
  C   C1526     1.0  0.5928996036550941  0.363732558634392  0.4542151250191385  1.0000
  H   H1129     1.0  0.5858646791079247  0.413617183780294  0.4433687305477433  1.0000
  H   H1130     1.0  0.6015258819657626  0.39096266590507656  0.4177670266314763  1.0000
  H   H1131     1.0  0.5825099236816365  0.34070656161434254  0.4501830007277386  1.0000
  H   H1132     1.0  0.5825474424284282  0.37164366464950743  0.4735947583802684  1.0000
  C   C1527     1.0  0.7699789060569927  0.33736082361695013  0.5711109590225983  1.0000
  C   C1528     1.0  0.7429628842910632  0.3403684369255995  0.5919134612810383  1.0000
  H   H1133     1.0  0.7897691812265758  0.3526015351776955  0.5760671531984246  1.0000
  H   H1134     1.0  0.7783556204735125  0.31246556679003024  0.5715203319176345  1.0000
  H   H1135     1.0  0.7508054663543446  0.3283785336494292  0.610299471110527  1.0000
  H   H1136     1.0  0.7224615725201056  0.32488461281534853  0.5869791268229081  1.0000
  C   C1529     1.0  0.21173859844255585  0.44017738601228  0.904735957747635  1.0000
  C   C1530     1.0  0.19952525650570682  0.4243953447290398  0.8790289297370142  1.0000
  H   H1137     1.0  0.22573464172634544  0.42302671087536975  0.9154849771129295  1.0000
  H   H1138     1.0  0.19222164173936432  0.444591315544552  0.9188692588616995  1.0000
  H   H1139     1.0  0.21964950137362937  0.4177170743359187  0.8665470309325376  1.0000
  H   H1140     1.0  0.1885413450967402  0.4419199538856786  0.8660204104607676  1.0000
  C   C1531     1.0  0.21922132134323052  0.6643898032869353  0.829329867931385  1.0000
  C   C1532     1.0  0.21833172512276494  0.6627496084451681  0.7984679210386095  1.0000
  H   H1141     1.0  0.19482394186500743  0.6655785989490425  0.8367860189128205  1.0000
  H   H1142     1.0  0.22872099804424956  0.6875783296263657  0.8356016196631042  1.0000
  H   H1143     1.0  0.20293766079620032  0.6807351580985022  0.7902943738673291  1.0000
  H   H1144     1.0  0.20697270722510208  0.6400486477586272  0.7923571363190163  1.0000
  C   C1533     1.0  0.3623783642735731  0.5540588177350939  0.7805032075865367  1.0000
  C   C1534     1.0  0.3926046113634309  0.5357733124450914  0.7883945656748311  1.0000
  H   H1145     1.0  0.35324781210340306  0.5439375161059075  0.761574679308772  1.0000
  H   H1146     1.0  0.36849851543539713  0.5784598278340021  0.7763637719537196  1.0000
  H   H1147     1.0  0.394812964050213  0.532502149758164  0.8107391716543783  1.0000
  H   H1148     1.0  0.41215975704015223  0.5499185583048822  0.7819379999662266  1.0000
  C   C1535     1.0  0.1675987472149795  0.3612282618202382  0.19528239696522082  1.0000
  C   C1536     1.0  0.1797841300635778  0.38611366509025113  0.21521686970641912  1.0000
  H   H1149     1.0  0.1865483971203413  0.34443697090118  0.19026201470925053  1.0000
  H   H1150     1.0  0.16340123371876472  0.37360089340988056  0.17597967006544002  1.0000
  H   H1151     1.0  0.1868547708736599  0.3720845956147762  0.23285766188717683  1.0000
  H   H1152     1.0  0.1615422198648554  0.4032344606663031  0.2224822449697795  1.0000
  C   C1537     1.0  0.2603484436260352  0.45616340832444113  0.04315566469350651  1.0000
  C   C1538     1.0  0.24330323441826682  0.47100170149588505  0.06757951598221879  1.0000
  H   H1153     1.0  0.2748665216042732  0.43556671839754496  0.047366641220601746  1.0000
  H   H1154     1.0  0.24211986186990303  0.44660245023671563  0.029674180616198864  1.0000
  H   H1155     1.0  0.22166696419171872  0.45777711917272784  0.07150353403337618  1.0000
  H   H1156     1.0  0.23560220564410966  0.49702732312939657  0.0635197689566392  1.0000
  C   C1539     1.0  0.23767786208332065  0.6216309331995797  0.30777290167879623  1.0000
  C   C1540     1.0  0.24888467241190596  0.6536327101189697  0.31932476885765676  1.0000
  H   H1157     1.0  0.22937938837201893  0.6040598316668471  0.3231502194544753  1.0000
  H   H1158     1.0  0.21648970901619433  0.6271844273066463  0.2952631814154336  1.0000
  H   H1159     1.0  0.2278795505547483  0.6632642986134211  0.33011750765834336  1.0000
  H   H1160     1.0  0.2559501332490047  0.6700659985630505  0.30245502853745254  1.0000
  C   C1541     1.0  0.44815461885885344  0.48358073457858247  0.32303694637186825  1.0000
  C   C1542     1.0  0.41255753093347697  0.48306625992579966  0.31803902000771306  1.0000
  H   H1161     1.0  0.4559314082205212  0.5065630678321459  0.33241873975762437  1.0000
  H   H1162     1.0  0.4621094039482534  0.482084950804734  0.30402892821157224  1.0000
  H   H1163     1.0  0.40063552915169987  0.48739508813057697  0.3370212039561864  1.0000
  H   H1164     1.0  0.40639732686902563  0.4583056553477248  0.311697714628779  1.0000
  C   C1543     1.0  0.6769527242185241  0.24141118309792015  0.8798576117624028  1.0000
  C   C1544     1.0  0.6815306336934909  0.22512361888359467  0.907106743494131  1.0000
  H   H1165     1.0  0.6718846181274113  0.22384685539127344  0.8636059052788796  1.0000
  H   H1166     1.0  0.6978493526126942  0.2536240122635435  0.872314021910183  1.0000
  H   H1167     1.0  0.6593736236970715  0.2120184105755138  0.9123252542823105  1.0000
  H   H1168     1.0  0.6838536511545619  0.24395342344112278  0.9223131580223678  1.0000
  C   C1545     1.0  0.6035919565642222  0.4594133826354616  0.82640265300717  1.0000
  C   C1546     1.0  0.6366603165271271  0.4706115917115377  0.8338826509533649  1.0000
  H   H1169     1.0  0.601152656113506  0.45631075174773394  0.8042011288161792  1.0000
  H   H1170     1.0  0.5861405362896868  0.476586003673767  0.8324776672796242  1.0000
  H   H1171     1.0  0.6445560512864897  0.4605782794779985  0.8535146646915316  1.0000
  H   H1172     1.0  0.6348978374544718  0.4966054769127349  0.8377220122796265  1.0000
  C   C1547     1.0  0.4595149901145462  0.3628159477710829  0.8185927720484703  1.0000
  C   C1548     1.0  0.46031228058591084  0.32825758732389554  0.8285230456236923  1.0000
  H   H1173     1.0  0.483209667179321  0.3725378200855328  0.815860307336457  1.0000
  H   H1174     1.0  0.44942009437987324  0.3774516678242172  0.8349537771204741  1.0000
  H   H1175     1.0  0.4394066977290292  0.3221592450630273  0.8401365174615146  1.0000
  H   H1176     1.0  0.46259959636822723  0.31138011502692575  0.811800361586171  1.0000
  C   C1549     1.0  0.4593452784370978  0.43198386610521616  0.004277163147449858  1.0000
  C   C1550     1.0  0.45173356321445235  0.44932583764167605  0.9783117930186022  1.0000
  H   H1177     1.0  0.43867704954015074  0.4178967419102169  0.010868861656357476  1.0000
  H   H1178     1.0  0.46120492474558306  0.4503354093094689  0.02030629795988559  1.0000
  H   H1179     1.0  0.47216086019088604  0.46314508715076114  0.9734231652429275  1.0000
  H   H1180     1.0  0.4486739924643488  0.4332042097695428  0.9615652620163215  1.0000
  C   C1551     1.0  0.7318203834490541  0.19690430362049255  0.2377482769099148  1.0000
  C   C1552     1.0  0.7145039243613711  0.1952937070686566  0.21071376786102125  1.0000
  H   H1181     1.0  0.7157095469424544  0.19416793648655886  0.255448686502571  1.0000
  H   H1182     1.0  0.7428265426311759  0.22068259058497736  0.23953878651393223  1.0000
  H   H1183     1.0  0.7320548566526328  0.19361490704380166  0.19504094644703202  1.0000
  H   H1184     1.0  0.7010751132794069  0.1727479946883105  0.20791572399591962  1.0000
  C   C1553     1.0  0.42390651434897053  0.4201157885427224  0.22413563452643048  1.0000
  C   C1554     1.0  0.4099812423206973  0.4014993176494147  0.20042777706147158  1.0000
  H   H1185     1.0  0.40564229472129726  0.42369601987059236  0.23987860576175352  1.0000
  H   H1186     1.0  0.4307927407237631  0.4448781576072721  0.21763733662949708  1.0000
  H   H1187     1.0  0.4264982428845331  0.40021797697280315  0.18357492834130532  1.0000
  H   H1188     1.0  0.4059141858992267  0.3768274561273955  0.20690818973483543  1.0000
  C   C1555     1.0  0.5679227342526201  0.2309244890050276  0.09058726630678328  1.0000
  C   C1556     1.0  0.5817985590828461  0.23390409054444067  0.06254204340150427  1.0000
  H   H1189     1.0  0.5659992711918882  0.2046018236439577  0.09429964254570108  1.0000
  H   H1190     1.0  0.542909023702408  0.23835998665677868  0.090948547822888  1.0000
  H   H1191     1.0  0.6061996646491729  0.2245657763494375  0.0631735905182154  1.0000
  H   H1192     1.0  0.570140004007645  0.21628773120365796  0.05021635350934872  1.0000
  C   C1557     1.0  0.5947181599414193  0.4432922944266086  0.3257972325427675  1.0000
  C   C1558     1.0  0.6282846398786471  0.4291580041775914  0.3266437997917258  1.0000
  H   H1193     1.0  0.594779407032749  0.4673804335874373  0.31685462075799675  1.0000
  H   H1194     1.0  0.5842247427260451  0.44676509487497246  0.3455286086340983  1.0000
  H   H1195     1.0  0.6379993322509825  0.4280091239445224  0.3056187258621981  1.0000
  H   H1196     1.0  0.6276951546775553  0.4029927740930008  0.3319636601801327  1.0000
  C   C1559     1.0  0.4831650789747239  0.2357089832327081  0.32410807253897744  1.0000
  C   C1560     1.0  0.44984399225636695  0.2441312543622353  0.3354174955761175  1.0000
  H   H1197     1.0  0.4983788393833191  0.22925283450268077  0.3409897363415613  1.0000
  H   H1198     1.0  0.4825580126939382  0.2137286493881642  0.31168579114639927  1.0000
  H   H1199     1.0  0.4411672965904647  0.22471720110910032  0.347855674945202  1.0000
  H   H1200     1.0  0.43437867241703204  0.24420253553802487  0.3175342592536393  1.0000
  C   C1561     1.0  0.8363596100851681  0.6890312075857782  0.8826516811333779  1.0000
  C   C1562     1.0  0.8539340960676816  0.6896130334397953  0.9088575081568827  1.0000
  H   H1201     1.0  0.8528022988852398  0.6877674295312681  0.8655673181303393  1.0000
  H   H1202     1.0  0.8233081832734954  0.7117130044928118  0.8803742959988564  1.0000
  H   H1203     1.0  0.8683180388226255  0.6677251116652045  0.9107275076434316  1.0000
  H   H1204     1.0  0.8379494423235446  0.6874591801264953  0.9255583324767079  1.0000
  C   C1563     1.0  0.6397223342947838  0.5818717666106186  0.8177541537877652  1.0000
  C   C1564     1.0  0.6210099350829511  0.6128194168419979  0.8238410915425991  1.0000
  H   H1205     1.0  0.6436439849372345  0.5786585018954585  0.7961388674804425  1.0000
  H   H1206     1.0  0.6243804593411643  0.561032530599647  0.8228017613285024  1.0000
  H   H1207     1.0  0.6246048407218411  0.618538043256177  0.8445561549302547  1.0000
  H   H1208     1.0  0.5956273414026492  0.6082823100236269  0.8233085093296394  1.0000
  C   C1565     1.0  0.8281989927048903  0.4723918797560489  0.8296935341439657  1.0000
  C   C1566     1.0  0.8329714557358279  0.47039556669247445  0.7994416720996179  1.0000
  H   H1209     1.0  0.8509195764739726  0.47591710994801006  0.8384950513872435  1.0000
  H   H1210     1.0  0.8196333712859101  0.44871710165432027  0.8372987286551473  1.0000
  H   H1211     1.0  0.851861592600521  0.4525275240835607  0.7956976986323938  1.0000
  H   H1212     1.0  0.8457658821699098  0.4923400464664308  0.7930983794736205  1.0000
  C   C1567     1.0  0.689530268223614  0.44916480131015807  0.005795419903797505  1.0000
  C   C1568     1.0  0.682466294603671  0.4352515530941295  0.03347379700119468  1.0000
  H   H1213     1.0  0.6682530337281539  0.44763824490352144  0.9933771130053459  1.0000
  H   H1214     1.0  0.7067648924280557  0.43379727321557304  0.9949490254324023  1.0000
  H   H1215     1.0  0.6727725586182078  0.4549517544386756  0.04641077538316307  1.0000
  H   H1216     1.0  0.7036035537042298  0.4248276270877356  0.04298674869312746  1.0000
  C   C1569     1.0  0.9138198284261512  0.7385693003386469  0.1984003876075109  1.0000
  C   C1570     1.0  0.892099816109807  0.7272387936076717  0.2198789513168796  1.0000
  H   H1217     1.0  0.9005309574177127  0.7530124771912351  0.18390580497734185  1.0000
  H   H1218     1.0  0.9227914426938347  0.7180050308266152  0.18571320618139717  1.0000
  H   H1219     1.0  0.8810065678515291  0.7487389283418023  0.22944158418539443  1.0000
  H   H1220     1.0  0.9053664061487376  0.7144475340053158  0.2357093614229871  1.0000
  C   C1571     1.0  0.6497428542962304  0.44440754319874387  0.19493900067268563  1.0000
  C   C1572     1.0  0.6632047325568352  0.42791702652262  0.1702981307115157  1.0000
  H   H1221     1.0  0.6276427530547322  0.45853760801022386  0.1901700051702206  1.0000
  H   H1222     1.0  0.6416710469564043  0.4257285223752717  0.20901864611604137  1.0000
  H   H1223     1.0  0.6885432520730003  0.43091100127978704  0.1689905221438759  1.0000
  H   H1224     1.0  0.6554698707645676  0.44202623163145105  0.152148205833145  1.0000
  C   C1573     1.0  0.8576386909186119  0.6069327727216557  0.07978061677665366  1.0000
  C   C1574     1.0  0.8464620746579131  0.6211222180880737  0.05312646681567232  1.0000
  H   H1225     1.0  0.8825476559677402  0.611365793106296  0.08226328453281234  1.0000
  H   H1226     1.0  0.8568971085202178  0.5805952369458838  0.07809086059874464  1.0000
  H   H1227     1.0  0.8659896570328481  0.617180675357975  0.03931232887311831  1.0000
  H   H1228     1.0  0.8459043238059377  0.6478306909406002  0.054648101892027644  1.0000
  C   C1575     1.0  0.6430946488317648  0.6000871786984857  0.30757218972540473  1.0000
  C   C1576     1.0  0.6635134753462519  0.629477394525652  0.31254825637186384  1.0000
  H   H1229     1.0  0.6213844394903386  0.6072419395466339  0.29703978029000805  1.0000
  H   H1230     1.0  0.6340597826873223  0.5891886401417729  0.3261847457201076  1.0000
  H   H1231     1.0  0.6854288891663924  0.6208848779672694  0.3213080414268126  1.0000
  H   H1232     1.0  0.672250746352175  0.6407657095611767  0.2937310139296429  1.0000
  C   C1577     1.0  0.8472477423142477  0.479248846591827  0.3006744551687516  1.0000
  C   C1578     1.0  0.848976172725159  0.48248804603049816  0.3313476135905152  1.0000
  H   H1233     1.0  0.8454762809109714  0.4528456988469601  0.295885189746241  1.0000
  H   H1234     1.0  0.8696345713599724  0.48606562481324267  0.2913363812183876  1.0000
  H   H1235     1.0  0.857358452704671  0.5069842199662372  0.3359123200948748  1.0000
  H   H1236     1.0  0.867964245223416  0.4676044114572817  0.33867260626577406  1.0000
  C   C1579     1.0  0.36707754114598196  0.8540663785541841  0.9107632780905706  1.0000
  C   C1580     1.0  0.3497259351865828  0.8654153637379517  0.8866440604835123  1.0000
  H   H1237     1.0  0.3523069800941632  0.8397418579059633  0.9240758461674994  1.0000
  H   H1238     1.0  0.37347187827625095  0.8751535823454201  0.9231855594831488  1.0000
  H   H1239     1.0  0.33681304896982966  0.8451903556098881  0.8791481645608111  1.0000
  H   H1240     1.0  0.3660262866542448  0.870087743200779  0.8703247875998372  1.0000
  C   C1581     1.0  0.5814931607921976  0.8429764420760826  0.8204051413701837  1.0000
  C   C1582     1.0  0.583904000589419  0.8306902850719872  0.7910077955630475  1.0000
  H   H1241     1.0  0.5764130280463973  0.8689164076302474  0.8203812944054244  1.0000
  H   H1242     1.0  0.6041361331997112  0.839628135255722  0.8298783481208508  1.0000
  H   H1243     1.0  0.5952561061727821  0.8490941464788169  0.7786113483822918  1.0000
  H   H1244     1.0  0.5589825113908812  0.8301050901509737  0.7839510812413317  1.0000
  C   C1583     1.0  0.4327827944416748  0.6566178651224607  0.817726332328879  1.0000
  C   C1584     1.0  0.4625646312172109  0.674164818082919  0.8084935824728692  1.0000
  H   H1245     1.0  0.4267859591173826  0.6636336861562726  0.838415561504712  1.0000
  H   H1246     1.0  0.4375708457775186  0.6307718461927642  0.8178932610821948  1.0000
  H   H1247     1.0  0.4604623871236337  0.6824594595707186  0.7877526848733909  1.0000
  H   H1248     1.0  0.48222193243703887  0.6565319475768316  0.8082491510840853  1.0000
  C   C1585     1.0  0.6138187414657627  0.6830755434353821  0.0008948686457432853  1.0000
  C   C1586     1.0  0.6321111210564344  0.6761106181684406  0.02693972865712202  1.0000
  H   H1249     1.0  0.6292774881516413  0.6956437981780464  0.9866999628727171  1.0000
  H   H1250     1.0  0.6103900897747041  0.6600888891732012  0.9908533092349773  1.0000
  H   H1251     1.0  0.6166740839513727  0.6671054198088837  0.04296687622249462  1.0000
  H   H1252     1.0  0.6413897741252935  0.699347694504306  0.03406997112017929  1.0000
  C   C1587     1.0  0.3567704321708608  0.6741544337074169  0.010097809795803991  1.0000
  C   C1588     1.0  0.37892364009498364  0.6898102019912565  0.0303617681000945  1.0000
  H   H1253     1.0  0.3318821824491277  0.6802405566426747  0.016282122656738673  1.0000
  H   H1254     1.0  0.3590581186923443  0.6858308332605481  0.9908175387878383  1.0000
  H   H1255     1.0  0.3832334666089957  0.6724294405436647  0.04639885190078341  1.0000
  H   H1256     1.0  0.3659520884350875  0.7089085813256146  0.04062192468782144  1.0000
  C   C1589     1.0  0.3534632869354105  0.8947208730642949  0.21704513700463893  1.0000
  C   C1590     1.0  0.33277865624690556  0.9073561224243396  0.19341597452338605  1.0000
  H   H1257     1.0  0.3375405708032546  0.8854291983614667  0.23229924546239453  1.0000
  H   H1258     1.0  0.36571825945193964  0.9149034228746249  0.22606922591900422  1.0000
  H   H1259     1.0  0.3471529776220995  0.9127934595401456  0.17555121959859638  1.0000
  H   H1260     1.0  0.31595803500982367  0.8882704516385053  0.18655281806563395  1.0000
  C   C1591     1.0  0.6454064644748423  0.6652793287625837  0.20555487448474016  1.0000
  C   C1592     1.0  0.6635696231709254  0.6854545421205286  0.18469176119087005  1.0000
  H   H1261     1.0  0.6625921629431887  0.657417421606246  0.22099777141350754  1.0000
  H   H1262     1.0  0.6362647940885003  0.6425120387887147  0.19732747291804476  1.0000
  H   H1263     1.0  0.6505533726251247  0.6863288739423333  0.1659814326406537  1.0000
  H   H1264     1.0  0.6640163268047231  0.7110505521083472  0.1918689026846207  1.0000
  C   C1593     1.0  0.4354301795634462  0.6466643604786171  0.19591374535722564  1.0000
  C   C1594     1.0  0.42483848462637147  0.6631602312388737  0.17002846128502827  1.0000
  H   H1265     1.0  0.445236040772836  0.6644253555273298  0.20989502207094887  1.0000
  H   H1266     1.0  0.4562085458127199  0.6316134758994361  0.19081069362342282  1.0000
  H   H1267     1.0  0.4385387295299761  0.6528392574559723  0.15302080601863233  1.0000
  H   H1268     1.0  0.40003551460674774  0.6582357856099255  0.16533895566509452  1.0000
  C   C1595     1.0  0.46972536110163443  0.8723989584321248  0.0616147939217767  1.0000
  C   C1596     1.0  0.4848203003666903  0.878901494629049  0.0887760893333077  1.0000
  H   H1269     1.0  0.47487060156864536  0.8935864201629817  0.04921676823651766  1.0000
  H   H1270     1.0  0.4435735539373667  0.8739601693181882  0.06366642778990944  1.0000
  H   H1271     1.0  0.47913478161906187  0.9035660262267518  0.09537792280223811  1.0000
  H   H1272     1.0  0.5108353082437133  0.8793839702687104  0.0870674543082975  1.0000
  C   C1597     1.0  0.6105644922483819  0.8632604251752702  0.3012567185582933  1.0000
  C   C1598     1.0  0.6154099219492396  0.8634887500765278  0.3313853712847175  1.0000
  H   H1273     1.0  0.634044079181813  0.865286842795841  0.2916801749603355  1.0000
  H   H1274     1.0  0.5988642448767115  0.8854062843082832  0.29543805915700244  1.0000
  H   H1275     1.0  0.5934632556049602  0.8747520141407965  0.3389667188311398  1.0000
  H   H1276     1.0  0.6342423748541558  0.8812935207640579  0.3353002479993838  1.0000
  C   C1599     1.0  0.48123404781545576  0.6412635477977336  0.33478753825705704  1.0000
  C   C1600     1.0  0.4863955536207643  0.677612124930364  0.33310831448858336  1.0000
  H   H1277     1.0  0.5017811656532555  0.6281664794948394  0.342887557286996  1.0000
  H   H1278     1.0  0.4791592718352226  0.633373436360753  0.313879711904263  1.0000
  H   H1279     1.0  0.4626180531542763  0.6897493397762154  0.33029635989403877  1.0000
  H   H1280     1.0  0.4960420005162475  0.6872396533289059  0.35238461100242247  1.0000
