data_image0
_chemical_formula_structural       C6H4C38H24C6H4C38H24C6H4C38H24C6H4C38H24C6H4C38H24C6H4C38H24C6H4C38H24C6H4C38H24C2H4C2H4C2H4C2H4C2H4C2H4C2H4C2H4C2H4C2H4C2H4C2H4C2H4C2H4C2H4C2H4C2H4C2H4C2H4C2H4C2H4C2H4C2H4C2H4C6H4C38H24C6H4C38H24C6H4C38H24C6H4C38H24C6H4C38H24C6H4C38H24C6H4C38H24C6H4C38H24C2H4C2H4C2H4C2H4C2H4C2H4C2H4C2H4C2H4C2H4C2H4C2H4C2H4C2H4C2H4C2H4C2H4C2H4C2H4C2H4C2H4C2H4C2H4C2H4C6H4C38H24C6H4C38H24C6H4C38H24C6H4C38H24C6H4C38H24C6H4C38H24C6H4C38H24C6H4C38H24C2H4C2H4C2H4C2H4C2H4C2H4C2H4C2H4C2H4C2H4C2H4C2H4C2H4C2H4C2H4C2H4C2H4C2H4C2H4C2H4C2H4C2H4C2H4C2H4C6H4C38H24C6H4C38H24C6H4C38H24C6H4C38H24C6H4C38H24C6H4C38H24C6H4C38H24C6H4C38H24C2H4C2H4C2H4C2H4C2H4C2H4C2H4C2H4C2H4C2H4C2H4C2H4C2H4C2H4C2H4C2H4C2H4C2H4C2H4C2H4C2H4C2H4C2H4C2H4
_chemical_formula_sum              "C1600 H1280"
_cell_length_a       50.7401004867583
_cell_length_b       50.62047381024726
_cell_length_c       44.99109937680055
_cell_angle_alpha    90.26259999990562
_cell_angle_beta     90.93300000030268
_cell_angle_gamma    89.45470000028513

_space_group_name_H-M_alt    "P 1"
_space_group_IT_number       1

loop_
  _space_group_symop_operation_xyz
  'x, y, z'

loop_
  _atom_site_type_symbol
  _atom_site_label
  _atom_site_symmetry_multiplicity
  _atom_site_fract_x
  _atom_site_fract_y
  _atom_site_fract_z
  _atom_site_occupancy
  C   C1        1.0  0.43756988431943383  0.38527958853981376  0.5182273864272052  1.0000
  C   C2        1.0  0.4295896607035559  0.3596888041903046  0.5199390797717011  1.0000
  C   C3        1.0  0.42497403775116194  0.34912571979499335  0.547121659273646  1.0000
  C   C4        1.0  0.4290501437410651  0.363123083576783  0.5738285214045229  1.0000
  C   C5        1.0  0.43505152725952334  0.389707987505045  0.570714128708888  1.0000
  C   C6        1.0  0.4394890769373564  0.40052044931580505  0.543647144082156  1.0000
  H   H1        1.0  0.4278530245337218  0.3474572830302132  0.5006791951785666  1.0000
  H   H2        1.0  0.4212862119942305  0.3278975499460342  0.5474662209209147  1.0000
  H   H3        1.0  0.4386015890808328  0.40109759199961326  0.5903941562138534  1.0000
  H   H4        1.0  0.4458097355766493  0.4205986820785954  0.5422600055796033  1.0000
  C   C7        1.0  0.4855302849668371  0.3570733835192251  0.5987992374288398  1.0000
  C   C8        1.0  0.46542405059076064  0.33904101706876016  0.5959604940510197  1.0000
  C   C9        1.0  0.4711674111134533  0.31566036006097825  0.5819757371286501  1.0000
  C   C10       1.0  0.4963639278126021  0.3091923744809743  0.5734550610384511  1.0000
  C   C11       1.0  0.015664366275235493  0.3282193961794752  0.5755290998571716  1.0000
  C   C12       1.0  0.010350895468167958  0.3515385741210539  0.5894538363635653  1.0000
  C   C13       1.0  0.4356225209613722  0.3483546226732757  0.6036786749498382  1.0000
  C   C14       1.0  0.41612519421246064  0.32479611826188276  0.6097585207903533  1.0000
  C   C15       1.0  0.42406537154923873  0.3034575915261608  0.627237799709538  1.0000
  C   C16       1.0  0.40799870254406984  0.2819021877929546  0.6307745582953733  1.0000
  C   C17       1.0  0.3830155334461113  0.28201495945899924  0.6187704751002064  1.0000
  C   C18       1.0  0.3743597311233931  0.3035658847005679  0.6030540180280156  1.0000
  C   C19       1.0  0.39030420801770643  0.3250287339205492  0.5995928407067425  1.0000
  C   C20       1.0  0.45004969753989615  0.3649584012267458  0.6561431874478263  1.0000
  C   C21       1.0  0.44592909320357677  0.37893073494431523  0.6820119867334109  1.0000
  C   C22       1.0  0.42229686779051356  0.39129087718598227  0.6872715535555897  1.0000
  C   C23       1.0  0.4036934146258036  0.3912927119153208  0.6641481325563069  1.0000
  C   C24       1.0  0.4090470842547781  0.3793061419639506  0.6373545742690203  1.0000
  C   C25       1.0  0.43194861142458174  0.3651814828263775  0.6330153204918045  1.0000
  C   C26       1.0  0.4154651097318048  0.402255886126277  0.7195380845885245  1.0000
  C   C27       1.0  0.39314068222637394  0.326970354623213  0.7591048765868165  1.0000
  C   C28       1.0  0.41861890616510616  0.33551263178664  0.7605831572025177  1.0000
  C   C29       1.0  0.4254032592628605  0.35909862244801116  0.7484368033917044  1.0000
  C   C30       1.0  0.4073206485910621  0.37460340034558975  0.73349838874883  1.0000
  C   C31       1.0  0.38160734233880567  0.3646098468183137  0.7302083807620063  1.0000
  C   C32       1.0  0.3748490170347507  0.34130342036264877  0.7431127701968109  1.0000
  C   C33       1.0  0.3935377445313775  0.4251515392213847  0.7197203688148216  1.0000
  C   C34       1.0  0.3940954000602217  0.44539484228269893  0.6990377780652228  1.0000
  C   C35       1.0  0.3752988126500372  0.46439960488702253  0.6979663024911357  1.0000
  C   C36       1.0  0.3568449909227358  0.46589544254422666  0.7196314496800426  1.0000
  C   C37       1.0  0.3566510973871664  0.44717668519096226  0.741667834256652  1.0000
  C   C38       1.0  0.3746526283964256  0.4266613284014378  0.7414166377009013  1.0000
  C   C39       1.0  0.4377750451809376  0.41745576817736635  0.7681746283342762  1.0000
  C   C40       1.0  0.4567943777284271  0.4296314629727543  0.784293444491342  1.0000
  C   C41       1.0  0.47588381835248655  0.44344531706785584  0.769899659548989  1.0000
  C   C42       1.0  0.47620786131720544  0.4440611611526975  0.7396493698971682  1.0000
  C   C43       1.0  0.4575841185493311  0.4308470646246742  0.7232193367683757  1.0000
  C   C44       1.0  0.43773862638797995  0.4169694933892604  0.7374864119436688  1.0000
  H   H5        1.0  0.48040758715688947  0.37698817006843516  0.607082054833505  1.0000
  H   H6        1.0  0.45620174009608205  0.30134257392773384  0.5772563540502539  1.0000
  H   H7        1.0  0.00021302916029894358  0.2907455927651345  0.5616977284422958  1.0000
  H   H8        1.0  0.025869764483041353  0.3662644516352289  0.5929528043171195  1.0000
  H   H9        1.0  0.44343058028790294  0.30217501818574405  0.6371678440859845  1.0000
  H   H10       1.0  0.41516097603942004  0.2648722915975714  0.6432098992942186  1.0000
  H   H11       1.0  0.3540433980237029  0.30445178645061227  0.5952380260809402  1.0000
  H   H12       1.0  0.38273363156292506  0.34171118463263045  0.5877243591921135  1.0000
  H   H13       1.0  0.468273115224863  0.3542553003028149  0.6547805017073378  1.0000
  H   H14       1.0  0.46004765558136756  0.3762011635499262  0.7002515242549564  1.0000
  H   H15       1.0  0.384582011844822  0.3999443552902455  0.6683162169990733  1.0000
  H   H16       1.0  0.39391125368308316  0.37927774294985617  0.6195996460320207  1.0000
  H   H17       1.0  0.4325971913036884  0.3242274113401193  0.7734453100483022  1.0000
  H   H18       1.0  0.44629865597883817  0.36363120914890157  0.750099591212072  1.0000
  H   H19       1.0  0.3671599820968113  0.37546830812229004  0.717337336002744  1.0000
  H   H20       1.0  0.35435876966861046  0.33604259225355254  0.7421413286493501  1.0000
  H   H21       1.0  0.4086424696848782  0.44491814722407813  0.6818252565503752  1.0000
  H   H22       1.0  0.37335086277402296  0.4781027258533233  0.6800335359845779  1.0000
  H   H23       1.0  0.3430447126291364  0.4481485290213088  0.7602030279013374  1.0000
  H   H24       1.0  0.3737694653547809  0.41211271202813915  0.7588603489661743  1.0000
  H   H25       1.0  0.42228227655688555  0.4071904703602991  0.7791628104145929  1.0000
  H   H26       1.0  0.45602623474440496  0.4289685057968587  0.8085972670048159  1.0000
  H   H27       1.0  0.4911505396370081  0.45537293608036594  0.7285144712444661  1.0000
  H   H28       1.0  0.4603543468957883  0.4305140015557854  0.6993334341883629  1.0000
  C   C45       1.0  0.16559970753377032  0.3069448929322546  0.30511934205908  1.0000
  C   C46       1.0  0.15033532882768796  0.3291853801810905  0.31201057500445356  1.0000
  C   C47       1.0  0.12529700998608032  0.32591623231472755  0.3211536850381057  1.0000
  C   C48       1.0  0.11375771321858337  0.30160783605838265  0.32393018502158044  1.0000
  C   C49       1.0  0.1293271862408265  0.279907473971823  0.31874619946396393  1.0000
  C   C50       1.0  0.15382974146827175  0.28248850164985895  0.30743790849844277  1.0000
  H   H29       1.0  0.1577273999749228  0.3486928088569947  0.3121639605119474  1.0000
  H   H30       1.0  0.11363129650364893  0.34291552854321256  0.3280471409618489  1.0000
  H   H31       1.0  0.12126462712693671  0.2604546436752258  0.3229276217769471  1.0000
  H   H32       1.0  0.1646855165104973  0.2645218552321382  0.30272519435515505  1.0000
  C   C51       1.0  0.0728871600562797  0.2652264872760274  0.2955338593299022  1.0000
  C   C52       1.0  0.07094749435643691  0.27198317993009485  0.32520395162728993  1.0000
  C   C53       1.0  0.05609599471142579  0.25632061257651045  0.3432189683335182  1.0000
  C   C54       1.0  0.04570664322225455  0.23320023929931508  0.3331244235577306  1.0000
  C   C55       1.0  0.05142203816450725  0.2251059395620859  0.3049237199625662  1.0000
  C   C56       1.0  0.06511172104874612  0.24084428366277913  0.2860839782812625  1.0000
  C   C57       1.0  0.08525659994388553  0.29751958378991555  0.33728139310864946  1.0000
  C   C58       1.0  0.06346779033456265  0.31865822811612793  0.32674002968059734  1.0000
  C   C59       1.0  0.04206148872794268  0.3236983539820929  0.34441715367466547  1.0000
  C   C60       1.0  0.021608186536318734  0.33969452861592914  0.3348672385993993  1.0000
  C   C61       1.0  0.02088622054107567  0.3500147709774258  0.30671988648510223  1.0000
  C   C62       1.0  0.04162242620483459  0.3446375986594705  0.288738214454416  1.0000
  C   C63       1.0  0.0629851820576042  0.32967317278579644  0.2984148392967423  1.0000
  C   C64       1.0  0.10450105120762286  0.277875500684645  0.3877341101822624  1.0000
  C   C65       1.0  0.11754581365885566  0.281358453230983  0.41433871530814353  1.0000
  C   C66       1.0  0.12080590796451376  0.30647035160177194  0.4259760070723471  1.0000
  C   C67       1.0  0.10925204200748972  0.32743278691306077  0.4113221336607655  1.0000
  C   C68       1.0  0.09643454128550638  0.32385631735579073  0.3845485821788042  1.0000
  C   C69       1.0  0.09462662411591226  0.29932217354365237  0.3716308548737829  1.0000
  C   C70       1.0  0.1362217425553596  0.3134092803008115  0.4562707562915574  1.0000
  C   C71       1.0  0.06806237248407628  0.3272420215236386  0.5119230197713731  1.0000
  C   C72       1.0  0.07721829324537739  0.30263940698202163  0.5062032964267129  1.0000
  C   C73       1.0  0.09796743093425338  0.2984241069367685  0.4877792517005011  1.0000
  C   C74       1.0  0.11196888298375596  0.31891249650550035  0.47666213687475484  1.0000
  C   C75       1.0  0.10238743816458984  0.3440792154233202  0.4821506704689895  1.0000
  C   C76       1.0  0.08091486903118936  0.3483574169402693  0.4999922948623987  1.0000
  C   C77       1.0  0.15679668070461175  0.336810540743221  0.4519003808171688  1.0000
  C   C78       1.0  0.16940810169679357  0.3400367449946129  0.4253224514317213  1.0000
  C   C79       1.0  0.18844886638329875  0.3587384038137815  0.42152782735502686  1.0000
  C   C80       1.0  0.1955849000738227  0.3744944706642085  0.4448335325806066  1.0000
  C   C81       1.0  0.18370490574176596  0.37182791598186893  0.4720561256932019  1.0000
  C   C82       1.0  0.16419037171994164  0.3533814368820895  0.475432829836435  1.0000
  C   C83       1.0  0.1603604489791897  0.29215299525700367  0.5016706435313527  1.0000
  C   C84       1.0  0.18000967353652397  0.2774432006273815  0.5138014364935797  1.0000
  C   C85       1.0  0.19518992288578157  0.26123675011355446  0.49602872442962415  1.0000
  C   C86       1.0  0.1910700834191697  0.2612546338023549  0.4659407121987752  1.0000
  C   C87       1.0  0.1719062028480768  0.27678090570481456  0.4529496266075611  1.0000
  C   C88       1.0  0.15602572474762852  0.2924861989845856  0.4708846160924884  1.0000
  H   H33       1.0  0.08196415071209662  0.27791344426280223  0.2794261580646837  1.0000
  H   H34       1.0  0.05367070153395022  0.2610625877833523  0.3664579842080137  1.0000
  H   H35       1.0  0.03714044557261808  0.21959042449165173  0.3486630423603634  1.0000
  H   H36       1.0  0.0686508930041319  0.23494409858339163  0.2632139768160999  1.0000
  H   H37       1.0  0.04084993957202107  0.31459015713363775  0.3668003228769129  1.0000
  H   H38       1.0  0.005651625151145279  0.3432014608061238  0.35049922249355  1.0000
  H   H39       1.0  0.042674995028928964  0.35193338847841  0.26615053124217686  1.0000
  H   H40       1.0  0.07875300625866603  0.3259725399424159  0.28326079575202867  1.0000
  H   H41       1.0  0.10360453705823244  0.2580839484260647  0.37863768269436926  1.0000
  H   H42       1.0  0.1260207679616248  0.2650486880659234  0.42653175166471585  1.0000
  H   H43       1.0  0.11069643995981815  0.3473502528764473  0.42078757555799157  1.0000
  H   H44       1.0  0.08882687229184964  0.3409423890622488  0.372833486171669  1.0000
  H   H45       1.0  0.06786513448471293  0.28552364830187793  0.5153953119844935  1.0000
  H   H46       1.0  0.10468263643418593  0.27803633531303407  0.4838045663758791  1.0000
  H   H47       1.0  0.11264545469420072  0.36061914667574735  0.4707134467580387  1.0000
  H   H48       1.0  0.07388276473622518  0.3682706724580922  0.5033689990056317  1.0000
  H   H49       1.0  0.16438093427498693  0.32751444002001767  0.40646937188020077  1.0000
  H   H50       1.0  0.19823779717605666  0.3611426520226592  0.40094304765368505  1.0000
  H   H51       1.0  0.18982119441608392  0.3844605343012306  0.4898243918004184  1.0000
  H   H52       1.0  0.155899358107872  0.3509747181907751  0.4968956859937196  1.0000
  H   H53       1.0  0.14892689125374542  0.30500961007563326  0.516117779954573  1.0000
  H   H54       1.0  0.18320237181779736  0.2768852269911867  0.5376740012033757  1.0000
  H   H55       1.0  0.20286817792380823  0.24859549087792726  0.45197373910336147  1.0000
  H   H56       1.0  0.16935376400405044  0.27699384309029007  0.4287502840774523  1.0000
  C   C89       1.0  0.009297736757119554  0.12296138894542225  0.02911990515094252  1.0000
  C   C90       1.0  0.013595486758404867  0.10516421676046964  0.05175338171759289  1.0000
  C   C91       1.0  0.01636233106806312  0.11428381914751033  0.08050093799164827  1.0000
  C   C92       1.0  0.0180392508250011  0.14104070136687832  0.08679841341453505  1.0000
  C   C93       1.0  0.01604608691935249  0.15826410992386936  0.06304633413236467  1.0000
  C   C94       1.0  0.01217690836673347  0.14932943746604072  0.034403257841674625  1.0000
  H   H57       1.0  0.012143865366547458  0.08435260353607278  0.04836044983226263  1.0000
  H   H58       1.0  0.014711693735459297  0.10077174936149705  0.09888874817043763  1.0000
  H   H59       1.0  0.014923922609938996  0.17894776196912746  0.06715617654185073  1.0000
  H   H60       1.0  0.008438915966142341  0.1634203283686742  0.016361120799338675  1.0000
  C   C95       1.0  0.46677814922697475  0.14217342426380497  0.12362004942436189  1.0000
  C   C96       1.0  0.4860700636239735  0.1613574161221379  0.12050209996333577  1.0000
  C   C97       1.0  0.4776059447273737  0.18644235154317382  0.11274168247549728  1.0000
  C   C98       1.0  0.45193582124099085  0.19110732847412878  0.10447353672807058  1.0000
  C   C99       1.0  0.43395961990980936  0.17069241537250446  0.10208561336358019  1.0000
  C   C100      1.0  0.4419552550177617  0.14652611027190274  0.1133563359946572  1.0000
  C   C101      1.0  0.016710551915049686  0.1523967733300526  0.12014353355233941  1.0000
  C   C102      1.0  0.03582571851244603  0.17696128900772867  0.12632252422813312  1.0000
  C   C103      1.0  0.03248580982790359  0.19333062299904774  0.15094556643546392  1.0000
  C   C104      1.0  0.049124399664441626  0.21412250538094327  0.15605130315447494  1.0000
  C   C105      1.0  0.06919453285725431  0.21882169486502856  0.1373022589906458  1.0000
  C   C106      1.0  0.07350693755120521  0.20195648638618066  0.11428398486823926  1.0000
  C   C107      1.0  0.05774637547637955  0.18065869956471267  0.10918847384972784  1.0000
  C   C108      1.0  0.014208285644626891  0.12773049912236348  0.17117755946957006  1.0000
  C   C109      1.0  0.025017884341823466  0.11215891222312374  0.19353538671840548  1.0000
  C   C110      1.0  0.05055145318645482  0.10221022889132224  0.1912052607915214  1.0000
  C   C111      1.0  0.06365313924282615  0.10743728878838836  0.16522798016150617  1.0000
  C   C112      1.0  0.05210950299488805  0.1215929491994012  0.1427114322570902  1.0000
  C   C113      1.0  0.0271916422564189  0.13268143445202588  0.14486438680792713  1.0000
  C   C114      1.0  0.06562351244549229  0.0883886666780914  0.21935038992744893  1.0000
  C   C115      1.0  0.06921372669600598  0.1562790279204092  0.27981295630097247  1.0000
  C   C116      1.0  0.05042473896203426  0.13751986470267394  0.2837542969500523  1.0000
  C   C117      1.0  0.04780058648052744  0.11717737728235318  0.2637297077978182  1.0000
  C   C118      1.0  0.0665815405157532  0.11293730785918261  0.24177335044250997  1.0000
  C   C119      1.0  0.08549897358792052  0.13265328976833218  0.23754302260539842  1.0000
  C   C120      1.0  0.08603483533620669  0.15403548606210457  0.2563538655678989  1.0000
  C   C121      1.0  0.0942505432724052  0.07561219089475081  0.21467279884239893  1.0000
  C   C122      1.0  0.09671350245924569  0.05974583639553145  0.1897983377814804  1.0000
  C   C123      1.0  0.11853343478385671  0.04459965191036521  0.1851692076248849  1.0000
  C   C124      1.0  0.13859850292122852  0.04449181672389553  0.205905816748862  1.0000
  C   C125      1.0  0.13754537277770934  0.06138110559539353  0.22967145619908613  1.0000
  C   C126      1.0  0.11524325159588492  0.07665955287772398  0.23402404784651887  1.0000
  C   C127      1.0  0.055996738088944335  0.05499991894875365  0.2612710937211784  1.0000
  C   C128      1.0  0.04242118887717926  0.03510311710104766  0.2740198746701197  1.0000
  C   C129      1.0  0.022959189467947245  0.022782871484956765  0.2579166193616401  1.0000
  C   C130      1.0  0.018541141415942725  0.030036067961893585  0.22857330488456526  1.0000
  C   C131      1.0  0.03162174554169742  0.05049696810310325  0.2167461707676086  1.0000
  C   C132      1.0  0.050340122558273234  0.06415001827920858  0.23322155265513828  1.0000
  H   H61       1.0  0.47151872388008614  0.1223549281228554  0.12961164302360884  1.0000
  H   H62       1.0  0.49211656499877116  0.2017178531367462  0.10936942428900313  1.0000
  H   H63       1.0  0.4470558284665493  0.21035004087347475  0.09554516640490976  1.0000
  H   H64       1.0  0.42892082789879626  0.12986577859549517  0.11322740324922764  1.0000
  H   H65       1.0  0.01569942199775323  0.19088587514762034  0.16480472507995805  1.0000
  H   H66       1.0  0.04583649687365951  0.22631122889529393  0.17548013410368962  1.0000
  H   H67       1.0  0.091165214261648  0.20279063386346463  0.10135002982112078  1.0000
  H   H68       1.0  0.06311577064439676  0.16864144046467927  0.09005685510851202  1.0000
  H   H69       1.0  0.49519194136879724  0.13620729738915008  0.1760967883033821  1.0000
  H   H70       1.0  0.013703519583308647  0.10889878758827835  0.21395499912689533  1.0000
  H   H71       1.0  0.08432968390297083  0.10198954841041086  0.16329710114977986  1.0000
  H   H72       1.0  0.06375517438054251  0.1251419939239802  0.12301762228623409  1.0000
  H   H73       1.0  0.036485449624605086  0.1383600246433584  0.30170929324030477  1.0000
  H   H74       1.0  0.03202615525075936  0.10320911035314781  0.2676532646199422  1.0000
  H   H75       1.0  0.09985758781882348  0.13115405075776862  0.21998260497572772  1.0000
  H   H76       1.0  0.10098407100305541  0.16859555410575774  0.2522591394113253  1.0000
  H   H77       1.0  0.0800936012339769  0.05686799709382302  0.17438487266104907  1.0000
  H   H78       1.0  0.11890261097068618  0.03077767063167019  0.1670325940018463  1.0000
  H   H79       1.0  0.152911391530109  0.061935034955594895  0.24637936162406293  1.0000
  H   H80       1.0  0.11440924211240701  0.08815236729051158  0.25488003090893674  1.0000
  H   H81       1.0  0.07022601937496624  0.06442824139781061  0.2746445315919422  1.0000
  H   H82       1.0  0.046523740198562785  0.027826967359168214  0.29607626605205417  1.0000
  H   H83       1.0  0.0036822982957530606  0.02041506886791496  0.21495422790397448  1.0000
  H   H84       1.0  0.027026893680133397  0.05509187018462727  0.19393752350544355  1.0000
  C   C133      1.0  0.3199412983231167  0.21025127668974244  0.7846646818790444  1.0000
  C   C134      1.0  0.3464875248977349  0.20651004478880874  0.7822838720453363  1.0000
  C   C135      1.0  0.3615001934264438  0.20182993427095142  0.8073857437934521  1.0000
  C   C136      1.0  0.35088175553150197  0.20098954073256553  0.8357976303337168  1.0000
  C   C137      1.0  0.3235979628288448  0.20412185427524057  0.837062505025948  1.0000
  C   C138      1.0  0.30838743972053057  0.2077730403556482  0.8120495524126115  1.0000
  H   H85       1.0  0.35602899178971514  0.20874723347264518  0.761416774091071  1.0000
  H   H86       1.0  0.3828429227069476  0.2028761256205551  0.8056607125787393  1.0000
  H   H87       1.0  0.3133039901057931  0.20570574212695922  0.8580096302015144  1.0000
  H   H88       1.0  0.2872343691588286  0.21202124929453658  0.8137390159734127  1.0000
  C   C139      1.0  0.35701364794681034  0.2563992668223612  0.8595857218654726  1.0000
  C   C140      1.0  0.3765725298426986  0.23707480150745897  0.8582341510168315  1.0000
  C   C141      1.0  0.4000537003588987  0.2438844876826348  0.8451541462908383  1.0000
  C   C142      1.0  0.4037533512822259  0.26837069676553865  0.8338480783036866  1.0000
  C   C143      1.0  0.38275769781329066  0.2860701062075588  0.8313983561405249  1.0000
  C   C144      1.0  0.3600956461833704  0.28045979215736216  0.8460344457251507  1.0000
  C   C145      1.0  0.3699182391936608  0.20648667911292065  0.8646830112666796  1.0000
  C   C146      1.0  0.39593260097809896  0.188532430795091  0.8679885801020892  1.0000
  C   C147      1.0  0.4169782447862903  0.194345572142532  0.8873151540463082  1.0000
  C   C148      1.0  0.439742834345443  0.17889722440686417  0.8881821156104036  1.0000
  C   C149      1.0  0.44172425987243974  0.1576566865318039  0.8696246921820231  1.0000
  C   C150      1.0  0.4213528728792224  0.15073029556829434  0.8509472279216912  1.0000
  C   C151      1.0  0.398476219630561  0.16562911225379842  0.8511028364075546  1.0000
  C   C152      1.0  0.3535344477500358  0.21818610309853023  0.9174009432987876  1.0000
  C   C153      1.0  0.340812879180456  0.2124441152917927  0.9432541817357863  1.0000
  C   C154      1.0  0.3307239197380563  0.18784227567446796  0.9486226744980693  1.0000
  C   C155      1.0  0.3338493701359596  0.16952359746712845  0.9260461061776775  1.0000
  C   C156      1.0  0.34549080425597634  0.17516747603882457  0.8997104814345028  1.0000
  C   C157      1.0  0.35576748852752377  0.1999144145881619  0.8950177740965402  1.0000
  C   C158      1.0  0.31740396586376346  0.17920846583501399  0.9794509385259534  1.0000
  C   C159      1.0  0.39028026845410574  0.16863349366811425  0.03016826174998711  1.0000
  C   C160      1.0  0.3783722382705461  0.19309763252387888  0.028764006313989524  1.0000
  C   C161      1.0  0.35521933305051306  0.19558324805742092  0.014044821797912737  1.0000
  C   C162      1.0  0.3436726454341342  0.17492274913959896  0.9988486477779954  1.0000
  C   C163      1.0  0.35636343635853013  0.15120122993653703  0.9993999464136256  1.0000
  C   C164      1.0  0.37965640762557284  0.14815133676615397  0.01471193760659229  1.0000
  C   C165      1.0  0.2970188228182185  0.15521669413397982  0.9779459821698189  1.0000
  C   C166      1.0  0.2783146066872661  0.15271948685734993  0.9558918137662537  1.0000
  C   C167      1.0  0.2589335765722136  0.13392303444899006  0.9562319294567835  1.0000
  C   C168      1.0  0.25828171591196664  0.11646210681232952  0.9793175598237851  1.0000
  C   C169      1.0  0.27651439929436133  0.11846270861555662  0.00223868979144548  1.0000
  C   C170      1.0  0.29579273506769427  0.1373706723046124  0.0018207698579841833  1.0000
  C   C171      1.0  0.29462197942662366  0.20166696407242474  0.02416644245024057  1.0000
  C   C172      1.0  0.27924545126212935  0.22066672225989184  0.03637881871862738  1.0000
  C   C173      1.0  0.2669651304859853  0.23923304934882428  0.018278661940848123  1.0000
  C   C174      1.0  0.2688647870898396  0.23751163652752227  0.9877848844331168  1.0000
  C   C175      1.0  0.2843230756497908  0.21821809257826202  0.9757185578436044  1.0000
  C   C176      1.0  0.29856725885641416  0.20065687444494554  0.9934512562969093  1.0000
  H   H89       1.0  0.33905376094864687  0.25231534792909605  0.8700226053101593  1.0000
  H   H90       1.0  0.4150130504187035  0.2292978571359096  0.8403925266234221  1.0000
  H   H91       1.0  0.42249996575467486  0.2714315966044894  0.822490881814037  1.0000
  H   H92       1.0  0.344157192279392  0.295373587656261  0.8455787351594083  1.0000
  H   H93       1.0  0.4147186148947332  0.21078896184816565  0.9026959413847083  1.0000
  H   H94       1.0  0.45488089018040045  0.18398489911567165  0.9036851667591247  1.0000
  H   H95       1.0  0.42249242502869994  0.1334759870036868  0.8370358292855142  1.0000
  H   H96       1.0  0.3826908100946244  0.15865613509421603  0.8357976303337168  1.0000
  H   H97       1.0  0.36354882163505997  0.23680879911041744  0.915629229538316  1.0000
  H   H98       1.0  0.34118427707416243  0.22712883076143367  0.9608890691408343  1.0000
  H   H99       1.0  0.32767087234673004  0.1492250229230076  0.928671443632028  1.0000
  H   H100      1.0  0.3463074569022631  0.16142309969750523  0.8826691292541048  1.0000
  H   H101      1.0  0.38784162791458016  0.21030150793430605  0.038545555735355015  1.0000
  H   H102      1.0  0.3465964829846357  0.21520722773426737  0.012038005845085157  1.0000
  H   H103      1.0  0.34808533921695517  0.135654194191544  0.985584135847336  1.0000
  H   H104      1.0  0.3890644191533129  0.12895414084967097  0.015278374724918312  1.0000
  H   H105      1.0  0.2766414784724689  0.16696651854794425  0.9379679391731738  1.0000
  H   H106      1.0  0.2443867446018127  0.1333688328791575  0.9392039151466022  1.0000
  H   H107      1.0  0.27503550601386  0.10525033478408385  0.020932075612005004  1.0000
  H   H108      1.0  0.3079944938572442  0.13894079636357842  0.021031909570578138  1.0000
  H   H109      1.0  0.3052111892411497  0.1879727634769444  0.03904528127281308  1.0000
  H   H110      1.0  0.27682560028210634  0.22177898689716383  0.06047434815888168  1.0000
  H   H111      1.0  0.258073281810469  0.25138763468724296  0.9736200662628198  1.0000
  H   H112      1.0  0.28557678533386394  0.21668715747193934  0.951661485929142  1.0000
  C   C177      1.0  0.03589625614313902  0.07742601360081525  0.9787351394909825  1.0000
  C   C178      1.0  0.057226403718020576  0.0941363616557669  0.9805290830351491  1.0000
  C   C179      1.0  0.08200701728300608  0.08536816206170311  0.9729487267952383  1.0000
  C   C180      1.0  0.08602122269434842  0.05950253164855014  0.9637078057133291  1.0000
  C   C181      1.0  0.0645124863987404  0.04299596174754699  0.9628919726517314  1.0000
  C   C182      1.0  0.040332725343700235  0.05205791398175572  0.969665387743523  1.0000
  H   H113      1.0  0.05473154309468017  0.11461925552679098  0.987037963700973  1.0000
  H   H114      1.0  0.0980985614658879  0.09892542350289155  0.97306876762719  1.0000
  H   H115      1.0  0.06551004510885902  0.02259846820155413  0.9555339142487682  1.0000
  H   H116      1.0  0.02339222613018585  0.03895806506151658  0.9678558833507701  1.0000
  C   C183      1.0  0.11452257739517821  0.013789454970361647  0.9923575509391275  1.0000
  C   C184      1.0  0.12237329543371286  0.021676739790754438  0.9642057528680914  1.0000
  C   C185      1.0  0.14087479303477113  0.005941450084747549  0.949691927093787  1.0000
  C   C186      1.0  0.14999148696587558  0.4827703052272857  0.9624273701725111  1.0000
  C   C187      1.0  0.14202999728996624  0.47556448739499513  0.990808135015603  1.0000
  C   C188      1.0  0.12382060320669  0.4909002628351638  0.004706195781563061  1.0000
  C   C189      1.0  0.11410790593823113  0.04961828635210017  0.9515992425347967  1.0000
  C   C190      1.0  0.13950420026182406  0.06538212353078783  0.961420360971139  1.0000
  C   C191      1.0  0.1593720959733271  0.0694472729734517  0.9414469003214029  1.0000
  C   C192      1.0  0.18059585703816572  0.0841254578455881  0.9492917909872814  1.0000
  C   C193      1.0  0.18377697417899133  0.09375079396232833  0.9777347992247185  1.0000
  C   C194      1.0  0.16551300278649073  0.0875019816252317  0.9988975533021239  1.0000
  C   C195      1.0  0.14355598818122667  0.07319378867242178  0.9905925061137643  1.0000
  C   C196      1.0  0.09795082043936067  0.0292650623331363  0.8999372252281894  1.0000
  C   C197      1.0  0.08904239441998515  0.032831960775968984  0.8711274255597886  1.0000
  C   C198      1.0  0.08620196931612961  0.05807580919332745  0.8596724180218821  1.0000
  C   C199      1.0  0.09692363968662271  0.07861885868227965  0.8753910980724423  1.0000
  C   C200      1.0  0.10726759698320144  0.0748318898149529  0.9032494629987076  1.0000
  C   C201      1.0  0.10680875039072223  0.05058051465596104  0.9161960890225321  1.0000
  C   C202      1.0  0.06838181099244564  0.06429782894518689  0.8307492464566382  1.0000
  C   C203      1.0  0.13034911554683687  0.07372317100763376  0.764666768467244  1.0000
  C   C204      1.0  0.1202175805588756  0.04938938339679615  0.7708799930099276  1.0000
  C   C205      1.0  0.10103386690317603  0.04696085832563821  0.792373970864385  1.0000
  C   C206      1.0  0.09136430014495456  0.06842777487139652  0.8074124195338858  1.0000
  C   C207      1.0  0.10347134515434958  0.0924351687034686  0.8023462518298514  1.0000
  C   C208      1.0  0.12174880539329479  0.09523801405280288  0.7807389020785507  1.0000
  C   C209      1.0  0.048957001506589826  0.08926869992194295  0.8370736199177956  1.0000
  C   C210      1.0  0.03819281816918625  0.09440185211353212  0.865134275875683  1.0000
  C   C211      1.0  0.019225189187769855  0.11308322207445803  0.868230884744362  1.0000
  C   C212      1.0  0.010033424650715985  0.1277361436526404  0.8444116715154337  1.0000
  C   C213      1.0  0.021307150521432262  0.12401968227035237  0.8175069643096734  1.0000
  C   C214      1.0  0.03988960285776516  0.10490424748895702  0.8131477037271322  1.0000
  C   C215      1.0  0.0377830296609967  0.03979306851313932  0.7930742090507698  1.0000
  C   C216      1.0  0.01883540724659251  0.022256947706385394  0.7850159124614214  1.0000
  C   C217      1.0  0.006199160786940031  0.007412937562918232  0.8057807534106907  1.0000
  C   C218      1.0  0.013534464330805344  0.011724025851888602  0.8353552576381912  1.0000
  C   C219      1.0  0.03235753095038512  0.030165540328505738  0.8438270282042617  1.0000
  C   C220      1.0  0.04651498387750009  0.04313988867899944  0.8220840767724232  1.0000
  H   H117      1.0  0.1026465146551943  0.02667989756796417  0.00620892915932858  1.0000
  H   H118      1.0  0.14867415338186368  0.011311263390709798  0.9283668955954099  1.0000
  H   H119      1.0  0.16484589633610933  0.4714183674724277  0.951814871436636  1.0000
  H   H120      1.0  0.1169359927347029  0.48491438364003997  0.02702341425069031  1.0000
  H   H121      1.0  0.15786892335597716  0.061971283906679976  0.9190570621840469  1.0000
  H   H122      1.0  0.19452834630203608  0.08972428003577614  0.9322882294391641  1.0000
  H   H123      1.0  0.1681086820422568  0.09359055987341121  0.022153713374950187  1.0000
  H   H124      1.0  0.13036004116171385  0.06788744520998653  0.008774246197703171  1.0000
  H   H125      1.0  0.09788510445447812  0.00890323488636573  0.9086268476744686  1.0000
  H   H126      1.0  0.08269111497991256  0.015617189567011174  0.8588588079386541  1.0000
  H   H127      1.0  0.09566781802194256  0.09808484527980259  0.8658189532134815  1.0000
  H   H128      1.0  0.1144610800292487  0.09178896704724122  0.9148756398710638  1.0000
  H   H129      1.0  0.12751214943150083  0.03228611621687043  0.7581000903638138  1.0000
  H   H130      1.0  0.09333393159859905  0.02761662202369342  0.7966398663554081  1.0000
  H   H131      1.0  0.09603529788064212  0.10996340330824905  0.8129231829118152  1.0000
  H   H132      1.0  0.12774799772485917  0.11500822377066035  0.7758305658387493  1.0000
  H   H133      1.0  0.042463333320374726  0.08196022326399177  0.8840429298864405  1.0000
  H   H134      1.0  0.011870702542017721  0.11662099819772156  0.8903939790880314  1.0000
  H   H135      1.0  0.014123800339824197  0.13470817173801614  0.7980425657065472  1.0000
  H   H136      1.0  0.04575490803434004  0.10089964988538208  0.7904844392503309  1.0000
  H   H137      1.0  0.04623121673524212  0.051044097923809074  0.7757416467039702  1.0000
  H   H138      1.0  0.012749109667680137  0.020831899316487264  0.7619013833756166  1.0000
  H   H139      1.0  0.003439117949244211  0.0011462129730828296  0.8525322114991273  1.0000
  H   H140      1.0  0.03618862667188767  0.03406440846705191  0.8675350925147164  1.0000
  C   C221      1.0  0.2785576705799544  0.18072254532847598  0.7345209587987886  1.0000
  C   C222      1.0  0.30128140363439754  0.1658949389687213  0.7303728811613475  1.0000
  C   C223      1.0  0.2992042378214014  0.14111777705542547  0.7184532711442208  1.0000
  C   C224      1.0  0.274598708796238  0.13162805352034265  0.7089544845714524  1.0000
  C   C225      1.0  0.2533562327621436  0.14862793059979426  0.7109262663851771  1.0000
  C   C226      1.0  0.25494490123885877  0.1719216424931425  0.7247554148216833  1.0000
  H   H141      1.0  0.32048381172145607  0.17252054982474432  0.737230769431179  1.0000
  H   H142      1.0  0.3160191356179069  0.12924586006738986  0.7158190417763923  1.0000
  H   H143      1.0  0.23363744938375555  0.14345207903320686  0.7018809673997817  1.0000
  H   H144      1.0  0.23759374434800598  0.18454695795657433  0.7269161497968134  1.0000
  C   C227      1.0  0.235863950734418  0.09308762466010624  0.7320601217437792  1.0000
  C   C228      1.0  0.24414034915386426  0.08943080222411154  0.7026901315262708  1.0000
  C   C229      1.0  0.2284059727502669  0.07418943089511176  0.6841171472493041  1.0000
  C   C230      1.0  0.20524381112927015  0.06388613968395011  0.6938849142047789  1.0000
  C   C231      1.0  0.1970877069820062  0.06866972808606678  0.7226769300462237  1.0000
  C   C232      1.0  0.2127883322736267  0.08252727303870692  0.7423702954214061  1.0000
  C   C233      1.0  0.2705695832113253  0.10307435979065152  0.6932647032396954  1.0000
  C   C234      1.0  0.290589239708519  0.08060881310718984  0.7038794249539402  1.0000
  C   C235      1.0  0.2978166662142704  0.06162298264989517  0.6829589755188076  1.0000
  C   C236      1.0  0.31454978928303534  0.040968526914511236  0.6911350899617378  1.0000
  C   C237      1.0  0.3233599663978596  0.03769991673840334  0.7197381526417773  1.0000
  C   C238      1.0  0.3158026940711393  0.05645910133172084  0.7405963586825648  1.0000
  C   C239      1.0  0.29923107852060277  0.07710787261054823  0.7326825556872323  1.0000
  C   C240      1.0  0.2544572189510366  0.11875924208043892  0.6408668800927916  1.0000
  C   C241      1.0  0.2587289288024703  0.13157176113316685  0.6145490391765726  1.0000
  C   C242      1.0  0.2838327935177346  0.1381784565866154  0.6061617417885422  1.0000
  C   C243      1.0  0.30455410374349323  0.13112842165017444  0.6247325030871392  1.0000
  C   C244      1.0  0.3006014545801964  0.11805507286674762  0.6511370401597676  1.0000
  C   C245      1.0  0.27539596764441593  0.11256049160169464  0.6600422915078861  1.0000
  C   C246      1.0  0.2902669349970029  0.15378751523495546  0.5757069381267297  1.0000
  C   C247      1.0  0.31187622980706026  0.08432869535479648  0.5230112358783162  1.0000
  C   C248      1.0  0.28560897041108396  0.09058939743313267  0.5278062002212744  1.0000
  C   C249      1.0  0.27923615813876773  0.11273868952856726  0.5432492309540199  1.0000
  C   C250      1.0  0.29833790570865676  0.1287105652898373  0.5558335115036198  1.0000
  C   C251      1.0  0.3246901883533154  0.12096474427169712  0.5526746592405954  1.0000
  C   C252      1.0  0.33115484451720206  0.09887454017199396  0.5365336132998348  1.0000
  C   C253      1.0  0.31101794254879817  0.17695705196190248  0.5811265593915105  1.0000
  C   C254      1.0  0.30976389154686623  0.1931633286686461  0.6064840736521161  1.0000
  C   C255      1.0  0.3260919466696316  0.2143017090393734  0.6101297581780557  1.0000
  C   C256      1.0  0.3441348668531867  0.22062529243064583  0.588489063751213  1.0000
  C   C257      1.0  0.34536021100506686  0.2046689605221114  0.5634916719864626  1.0000
  C   C258      1.0  0.3277244586436224  0.1844750521091196  0.5590301543989254  1.0000
  C   C259      1.0  0.2667967833649999  0.1729694217745414  0.5292466902046946  1.0000
  C   C260      1.0  0.2474374487816553  0.1877810392808342  0.5153797511359073  1.0000
  C   C261      1.0  0.22905722864336425  0.2011346831564306  0.5313763034826519  1.0000
  C   C262      1.0  0.23048147605537644  0.20007195860313123  0.5620267292409783  1.0000
  C   C263      1.0  0.24919120984746232  0.18501328105998086  0.5764671967290903  1.0000
  C   C264      1.0  0.26760156111031397  0.17028066154133678  0.5600127108382336  1.0000
  H   H145      1.0  0.24710316074903282  0.10561572916529198  0.7473675507959867  1.0000
  H   H146      1.0  0.23452995689864073  0.06943591096435878  0.6620607558673696  1.0000
  H   H147      1.0  0.1949323566667919  0.05216098406512972  0.6772414751525168  1.0000
  H   H148      1.0  0.20705828245169097  0.08539744626729882  0.7644689233923607  1.0000
  H   H149      1.0  0.2917836621363657  0.06232233020220711  0.6599200276975649  1.0000
  H   H150      1.0  0.3215624625495591  0.028105111698067873  0.6731534179310518  1.0000
  H   H151      1.0  0.32277650437483063  0.05563450957628058  0.7627839057882982  1.0000
  H   H152      1.0  0.2942856305743254  0.0910152850014445  0.7498372797644739  1.0000
  H   H153      1.0  0.2342134719877492  0.11590547140523111  0.6466755225722305  1.0000
  H   H154      1.0  0.24180373828350077  0.13681973919767332  0.6004108967467093  1.0000
  H   H155      1.0  0.3244389128098155  0.13599598370660498  0.6195485175295227  1.0000
  H   H156      1.0  0.31768077786262844  0.11405484292042767  0.6651684796278962  1.0000
  H   H157      1.0  0.2699131973086889  0.07861313693659978  0.519241064563686  1.0000
  H   H158      1.0  0.25952364151616986  0.11863908708974485  0.5466992933834457  1.0000
  H   H159      1.0  0.3402169382518727  0.13280691892259713  0.5639140378766628  1.0000
  H   H160      1.0  0.3511715413296795  0.09329944663235956  0.5336170656790832  1.0000
  H   H161      1.0  0.295728571785316  0.19061609351759193  0.624118961057164  1.0000
  H   H162      1.0  0.32422286411160123  0.22698309441081477  0.6297475422886758  1.0000
  H   H163      1.0  0.35839065660052194  0.21114069238298463  0.5458612305381533  1.0000
  H   H164      1.0  0.3280310159451687  0.17375720726241195  0.5378607313864116  1.0000
  H   H165      1.0  0.28171166357194893  0.16315526356164908  0.5156709613023085  1.0000
  H   H166      1.0  0.2458316544876283  0.18777137683568715  0.4912426520001437  1.0000
  H   H167      1.0  0.21664394925340918  0.2116700740544166  0.5749533484594775  1.0000
  H   H168      1.0  0.25087104905352126  0.18609112664814717  0.6007021069131105  1.0000
  C   C265      1.0  0.4142443315744613  0.4248347206775356  0.46105460574266827  1.0000
  C   C266      1.0  0.3956590232293891  0.4057331961027381  0.4546079684711897  1.0000
  C   C267      1.0  0.37131425135357843  0.41293346558838356  0.4428862035289462  1.0000
  C   C268      1.0  0.3649126240659748  0.43942603482065945  0.43789561708947394  1.0000
  C   C269      1.0  0.3841376294071158  0.45753571587904446  0.44431557862051885  1.0000
  C   C270      1.0  0.40782718114724875  0.45097640760525626  0.45625964139970987  1.0000
  H   H169      1.0  0.40039057661146393  0.3853833479564243  0.45826032193223776  1.0000
  H   H170      1.0  0.35712945314306077  0.3978516094406752  0.4372842980378682  1.0000
  H   H171      1.0  0.38036279569231535  0.47858787305373135  0.44091219873685195  1.0000
  H   H172      1.0  0.4210737401130839  0.466675321727358  0.461030152980604  1.0000
  C   C271      1.0  0.3281917839975586  0.47915264113855904  0.46795250762315027  1.0000
  C   C272      1.0  0.32736219443771397  0.4763079919459347  0.4368797159746237  1.0000
  C   C273      1.0  0.3164864082369013  0.4970534476034088  0.42030296627344593  1.0000
  C   C274      1.0  0.31252052383691054  0.021298592532677324  0.43322958549194523  1.0000
  C   C275      1.0  0.3148011283819851  0.02467495166341911  0.4638666733800546  1.0000
  C   C276      1.0  0.3220951014797618  0.0028020462037132974  0.4810102825654487  1.0000
  C   C277      1.0  0.33814659016703336  0.449328654508475  0.4215967396844806  1.0000
  C   C278      1.0  0.3125520744414862  0.43096917069684176  0.42499122765466946  1.0000
  C   C279      1.0  0.2924787669618436  0.4302922515566596  0.40308599880185925  1.0000
  C   C280      1.0  0.27056442065963054  0.41490851021431824  0.4071162585857181  1.0000
  C   C281      1.0  0.2676564429990948  0.4015683657293556  0.43294504426065233  1.0000
  C   C282      1.0  0.2864483018205458  0.40357387541809425  0.4546035225144508  1.0000
  C   C283      1.0  0.3080713579675575  0.4182529422493759  0.45122904134958725  1.0000
  C   C284      1.0  0.3606816991069238  0.47161491398723104  0.37637469071424323  1.0000
  C   C285      1.0  0.37356983488078277  0.46978671432016494  0.34957224051347885  1.0000
  C   C286      1.0  0.37679704429214034  0.4458734114617303  0.33527848959775225  1.0000
  C   C287      1.0  0.36254795728411415  0.42465496539799763  0.34562200795092113  1.0000
  C   C288      1.0  0.3489756542577804  0.4265448522102118  0.3720354369370274  1.0000
  C   C289      1.0  0.34798081566504013  0.4496485864382325  0.3879408471706236  1.0000
  C   C290      1.0  0.3942647035290155  0.44300355805809766  0.3058329181156816  1.0000
  C   C291      1.0  0.33807772623805615  0.4571868318436728  0.23321488372002983  1.0000
  C   C292      1.0  0.3460021781663449  0.47735745094246357  0.25178564501862705  1.0000
  C   C293      1.0  0.3619775295844253  0.47250834523361673  0.27561152718266396  1.0000
  C   C294      1.0  0.3715836965289506  0.4473226672394209  0.2818692112927372  1.0000
  C   C295      1.0  0.3630222402664838  0.42689874966675934  0.2641943102770385  1.0000
  C   C296      1.0  0.34656137199851045  0.4315802096019614  0.23993717030932338  1.0000
  C   C297      1.0  0.4123337030258778  0.41688563479810425  0.30261182245831175  1.0000
  C   C298      1.0  0.4212233406539754  0.4030057277411204  0.3278292890816402  1.0000
  C   C299      1.0  0.4384028078252989  0.38207924247510355  0.3255173915773859  1.0000
  C   C300      1.0  0.44896136075848225  0.3757027622706863  0.2985860086311919  1.0000
  C   C301      1.0  0.44155965472854125  0.38926538054357857  0.27356638708274666  1.0000
  C   C302      1.0  0.4234066083349408  0.40972298084915076  0.27570711525255137  1.0000
  C   C303      1.0  0.42419035966111673  0.4734768455112314  0.2747267817916128  1.0000
  C   C304      1.0  0.4450400438129157  0.48959729440049193  0.2711522325734964  1.0000
  C   C305      1.0  0.4609299178704127  0.49535796126307574  0.29521597342306727  1.0000
  C   C306      1.0  0.4551743595798641  0.48525129780181714  0.3229165068850997  1.0000
  C   C307      1.0  0.43371902261175965  0.4699501543492161  0.3268511785990711  1.0000
  C   C308      1.0  0.4171574313701951  0.46391281952402663  0.3027652079658056  1.0000
  H   H173      1.0  0.3357961961452578  0.4630192834645937  0.481297046775111  1.0000
  H   H174      1.0  0.3137284005868122  0.4943227980551601  0.3966104628115775  1.0000
  H   H175      1.0  0.305676027421222  0.03794270291850214  0.4193448625962021  1.0000
  H   H176      1.0  0.32435865245743123  0.00412401728776298  0.5047472455947066  1.0000
  H   H177      1.0  0.29294420263271304  0.4418433777063898  0.3829947202985409  1.0000
  H   H178      1.0  0.2552738326118299  0.41357164581869066  0.3902038391507495  1.0000
  H   H179      1.0  0.2851128310158879  0.3942830225256676  0.47625533183314084  1.0000
  H   H180      1.0  0.32237709968176814  0.4198105323576569  0.46900842234865114  1.0000
  H   H181      1.0  0.35980488362059776  0.49008718375452176  0.38758072467476856  1.0000
  H   H182      1.0  0.3829662368668317  0.48709758624124827  0.34126497034674935  1.0000
  H   H183      1.0  0.36298690507541254  0.4062744432252948  0.3336334856043405  1.0000
  H   H184      1.0  0.34065207128606734  0.4087299763235322  0.38128747291078385  1.0000
  H   H185      1.0  0.33860152648322267  0.49719972812000013  0.2466661258337253  1.0000
  H   H186      1.0  0.36828623545570455  0.48942210229663974  0.28837809195856096  1.0000
  H   H187      1.0  0.37015661456027105  0.40669863587179356  0.26824457686622266  1.0000
  H   H188      1.0  0.34117280058456484  0.4154635483929811  0.22590350786282537  1.0000
  H   H189      1.0  0.416058935433397  0.4086445312864523  0.35004351192780764  1.0000
  H   H190      1.0  0.4436221613152996  0.37136747308811335  0.34554198072961995  1.0000
  H   H191      1.0  0.45071011602148686  0.3836268452592858  0.2529260329221679  1.0000
  H   H192      1.0  0.41856964193822743  0.42105724194759  0.2562316017575778  1.0000
  H   H193      1.0  0.41203287909158975  0.4686482297093139  0.2550734300270811  1.0000
  H   H194      1.0  0.44964060129280475  0.4979365240195056  0.2496538087623002  1.0000
  H   H195      1.0  0.4652555278971612  0.4913526844020468  0.34319896152819296  1.0000
  H   H196      1.0  0.43009401391307506  0.4626329637868516  0.3490209418778489  1.0000
  C   C309      1.0  0.20501652393503814  0.34620189724254563  0.2640542626397615  1.0000
  C   C310      1.0  0.18522817348252965  0.3640931252394384  0.2581389171985876  1.0000
  C   C311      1.0  0.18567055749414055  0.3795366306591341  0.23315486330405405  1.0000
  C   C312      1.0  0.2070218464323993  0.3793283945032342  0.2143809217824868  1.0000
  C   C313      1.0  0.2248203810618955  0.3584739228927998  0.21882065418200294  1.0000
  C   C314      1.0  0.22396926984333762  0.34259343028716255  0.24320494851245217  1.0000
  H   H197      1.0  0.16907565705137306  0.36782592535668024  0.2729328382474462  1.0000
  H   H198      1.0  0.169179403300374  0.39305592820102553  0.2292513132872553  1.0000
  H   H199      1.0  0.24070194953832308  0.3565810608060982  0.20369706544095126  1.0000
  H   H200      1.0  0.23902361960888352  0.3272004897284138  0.2464038143861272  1.0000
  C   C315      1.0  0.2564076905882677  0.4099943041973292  0.20962574875234205  1.0000
  C   C316      1.0  0.239105056194176  0.41057652093350006  0.1853875041007674  1.0000
  C   C317      1.0  0.24817024029527132  0.42136398206664827  0.15899563800484506  1.0000
  C   C318      1.0  0.2733064932965708  0.4314718625985358  0.1572014721628415  1.0000
  C   C319      1.0  0.2898963484540404  0.4297680199120405  0.1815668711771501  1.0000
  C   C320      1.0  0.2810657778524842  0.4196122518200656  0.2078340281865449  1.0000
  C   C321      1.0  0.20987961369463018  0.4005905999686352  0.18905564070823871  1.0000
  C   C322      1.0  0.19656869127683113  0.4285865055085051  0.19709526427928328  1.0000
  C   C323      1.0  0.18244510314240014  0.44234375592183917  0.17584959310869644  1.0000
  C   C324      1.0  0.16778946209528223  0.46455564992218107  0.18300513818220066  1.0000
  C   C325      1.0  0.1683384450678037  0.4739320840031789  0.21220618204362907  1.0000
  C   C326      1.0  0.1837906018453513  0.4614579894195018  0.23320599180655194  1.0000
  C   C327      1.0  0.19777370050071064  0.43900174260506347  0.22570566278794205  1.0000
  C   C328      1.0  0.21212907376105075  0.37131617505663483  0.14078166473454867  1.0000
  C   C329      1.0  0.20092221859008963  0.35944221704735246  0.11599678970192003  1.0000
  C   C330      1.0  0.17403704281204876  0.35572831244348796  0.11353195128584577  1.0000
  C   C331      1.0  0.15837048127960882  0.36949487738826425  0.13380129035655908  1.0000
  C   C332      1.0  0.16932216843673603  0.38267595590728376  0.15740198481176815  1.0000
  C   C333      1.0  0.19687633581983013  0.38498005299012084  0.16106189639927243  1.0000
  C   C334      1.0  0.1595255677295668  0.338779176100271  0.08776185223986566  1.0000
  C   C335      1.0  0.14071940105309264  0.4034263195744098  0.026633948440358223  1.0000
  C   C336      1.0  0.1655172114282635  0.3929509534375539  0.028922726969570062  1.0000
  C   C337      1.0  0.17093521844464388  0.37239682296228077  0.04742946649112636  1.0000
  C   C338      1.0  0.15204671205154316  0.36213382843643893  0.06502567407254553  1.0000
  C   C339      1.0  0.12739545195582097  0.37372555930950874  0.06428453308416245  1.0000
  C   C340      1.0  0.12184864876519247  0.39392627681569575  0.04482858179884018  1.0000
  C   C341      1.0  0.13552947233871968  0.3220119408786581  0.09917039952985018  1.0000
  C   C342      1.0  0.13622670602738168  0.31140817475312504  0.12756139007344175  1.0000
  C   C343      1.0  0.11665899574854408  0.2951670508977316  0.1376188111104591  1.0000
  C   C344      1.0  0.09745112125756787  0.28652490473504494  0.11779495690498867  1.0000
  C   C345      1.0  0.09729068589116402  0.29504898532273255  0.08855123185886637  1.0000
  C   C346      1.0  0.11605540399181236  0.3128608384327318  0.07953505389011124  1.0000
  C   C347      1.0  0.17529120831436262  0.309104869208343  0.04329583821308692  1.0000
  C   C348      1.0  0.1893179187550219  0.28800584541750557  0.03228298107286901  1.0000
  C   C349      1.0  0.20565626957512556  0.2736307962920675  0.05015661635479873  1.0000
  C   C350      1.0  0.2078077033063225  0.279525600408783  0.08019194399829122  1.0000
  C   C351      1.0  0.19344381800017552  0.2998409344036073  0.09136063192220933  1.0000
  C   C352      1.0  0.17733060959587893  0.31596627274387945  0.07346921281332382  1.0000
  H   H201      1.0  0.25006538121575245  0.4045832326293885  0.23171659629900349  1.0000
  H   H202      1.0  0.23552533329981015  0.4235301783214192  0.13966684108225674  1.0000
  H   H203      1.0  0.27991976531729584  0.4414080222835861  0.13787978877103554  1.0000
  H   H204      1.0  0.292928733112049  0.4197297581745127  0.22815093899436498  1.0000
  H   H205      1.0  0.1817667610238076  0.43537707811012577  0.15306028575834585  1.0000
  H   H206      1.0  0.1545345127819342  0.47355932081043917  0.1661885291149565  1.0000
  H   H207      1.0  0.18545394239598365  0.46825438735052366  0.2564005481136579  1.0000
  H   H208      1.0  0.20990082165615345  0.4307990378571873  0.24274034603323183  1.0000
  H   H209      1.0  0.2334333197021267  0.36996051917650374  0.142182808000829  1.0000
  H   H210      1.0  0.2133960931838206  0.3504996035943831  0.09964055945499421  1.0000
  H   H211      1.0  0.13745192986546342  0.36859052460158037  0.13191064725332027  1.0000
  H   H212      1.0  0.15571347426629992  0.39290023210234865  0.17212921650954247  1.0000
  H   H213      1.0  0.18243313223195795  0.4009632534388676  0.017218568016012716  1.0000
  H   H214      1.0  0.19092104013365677  0.36551976190320007  0.04841157833476057  1.0000
  H   H215      1.0  0.11262775125297027  0.3678235815380231  0.08010769311808809  1.0000
  H   H216      1.0  0.10234322615031999  0.4034672247853556  0.04455471086372082  1.0000
  H   H217      1.0  0.15302110151039475  0.31414351962900094  0.14240866260316767  1.0000
  H   H218      1.0  0.11772073233499596  0.2877474883233263  0.15987949420454847  1.0000
  H   H219      1.0  0.08203775214746918  0.28859876440254384  0.07299994207952756  1.0000
  H   H220      1.0  0.11780149616318365  0.31771028048189615  0.05679843112711723  1.0000
  H   H221      1.0  0.16143708408690366  0.3188074838607877  0.0283827655236245  1.0000
  H   H222      1.0  0.1869203368000478  0.281775580362129  0.009167713369100383  1.0000
  H   H223      1.0  0.22003997882364865  0.2677246908889772  0.0950454408674517  1.0000
  H   H224      1.0  0.19484708292126188  0.3033045939281429  0.11507136380670746  1.0000
  C   C353      1.0  0.31695361750644524  0.44359264285879474  0.1809508838709685  1.0000
  C   C354      1.0  0.3213546512418936  0.4642066232883769  0.20625793652258687  1.0000
  H   H225      1.0  0.3341182566180424  0.42924328022363784  0.17975314312549517  1.0000
  H   H226      1.0  0.3177579459422017  0.45403095484329326  0.15971210393332694  1.0000
  H   H227      1.0  0.30121100836384707  0.4713776847582488  0.21371669584568756  1.0000
  H   H228      1.0  0.32935006237861364  0.4812336319684356  0.19559853294311552  1.0000
  C   C355      1.0  0.3208050713810902  0.058791280147860975  0.5075148536647034  1.0000
  C   C356      1.0  0.3079142561153853  0.05201658665115029  0.47728679379657746  1.0000
  H   H229      1.0  0.3427363103995053  0.05964401731706261  0.5039714261437597  1.0000
  H   H230      1.0  0.31893664465505955  0.042227079864435295  0.5228245056952802  1.0000
  H   H231      1.0  0.3125164120753054  0.06724632939672305  0.4613858295197201  1.0000
  H   H232      1.0  0.28592148254164185  0.05367618838475929  0.47822044471175706  1.0000
  C   C357      1.0  0.15255506671568278  0.4506389761783767  0.006949180956363765  1.0000
  C   C358      1.0  0.13478611921008787  0.4259967654156299  0.004219363518648267  1.0000
  H   H233      1.0  0.17331979378241458  0.44640335205999926  0.9999245693088217  1.0000
  H   H234      1.0  0.15532690403934885  0.4546488152775752  0.030596851979621958  1.0000
  H   H235      1.0  0.1346480910569851  0.4175695159222451  0.9817739509220552  1.0000
  H   H236      1.0  0.11391379237956085  0.43187278561803955  0.007900615698499314  1.0000
  C   C359      1.0  0.17261971780667604  0.057000230886947806  0.7365861057040313  1.0000
  C   C360      1.0  0.1485224236131838  0.0763812897913696  0.7382622313946156  1.0000
  H   H237      1.0  0.16657494245615648  0.03877114288771137  0.7255779168183891  1.0000
  H   H238      1.0  0.17797659844456404  0.05005399489067923  0.7594938978014748  1.0000
  H   H239      1.0  0.13682046116435473  0.07843528321896656  0.7169283079827605  1.0000
  H   H240      1.0  0.1576504669997406  0.09655419283242815  0.7410009407458091  1.0000
  C   C361      1.0  0.2504316913299575  0.2610677373257444  0.03098787387481267  1.0000
  C   C362      1.0  0.22222385075493875  0.2514619087652565  0.03686231651398826  1.0000
  H   H241      1.0  0.2488150241276915  0.27764561928266185  0.01564078688849388  1.0000
  H   H242      1.0  0.2598730807698373  0.2706013767718677  0.05043915690555906  1.0000
  H   H243      1.0  0.21383452507622966  0.24301847726963316  0.016328643085360642  1.0000
  H   H244      1.0  0.22279028071979715  0.234935566912694  0.05375961969604439  1.0000
  C   C363      1.0  0.27886441601371925  0.20789365159428294  0.7493371096313419  1.0000
  C   C364      1.0  0.30486202239616766  0.22141674512943788  0.7574398657880794  1.0000
  H   H245      1.0  0.2678812904307811  0.22152697781090278  0.7352545416607154  1.0000
  H   H246      1.0  0.2679839992569943  0.20727917976554439  0.770399829682121  1.0000
  H   H247      1.0  0.300532210163249  0.24272020428505753  0.763675320114458  1.0000
  H   H248      1.0  0.318238956887381  0.22273024559716093  0.7383022450052662  1.0000
  C   C365      1.0  0.20813584685076508  0.10996556513440536  0.9851239793248546  1.0000
  C   C366      1.0  0.23542546955557486  0.0970743159706571  0.9819540121699829  1.0000
  H   H249      1.0  0.20777516390981973  0.12769893203577196  0.9717772171945247  1.0000
  H   H250      1.0  0.20590017913547962  0.1174068882743868  0.008242954367398525  1.0000
  H   H251      1.0  0.2357430154591171  0.08571626119347726  0.9618071592074277  1.0000
  H   H252      1.0  0.2385788787801072  0.0819709435928165  0.00014686714576939153  1.0000
  C   C367      1.0  0.4661810334205981  0.14028392653849964  0.871494216990752  1.0000
  C   C368      1.0  0.4867993742313757  0.14766743582423814  0.8476527739781288  1.0000
  H   H253      1.0  0.47487474281996084  0.14052126937320158  0.8941997180565734  1.0000
  H   H254      1.0  0.4593407564377749  0.11940697746993321  0.8687177170072774  1.0000
  H   H255      1.0  0.49423703837921085  0.16744996478469168  0.8530012599350866  1.0000
  H   H256      1.0  0.47618882601986284  0.14885862070756278  0.8263499722634462  1.0000
  C   C369      1.0  0.00611203575416642  0.0013504920307098136  0.2717924503439053  1.0000
  C   C370      1.0  0.48350151159365423  0.014427990045620223  0.2896073989968809  1.0000
  H   H257      1.0  0.4976772475752898  0.48880339613701645  0.2536573928057253  1.0000
  H   H258      1.0  0.018008893695539294  0.48767648770619487  0.28556824729954416  1.0000
  H   H259      1.0  0.4754115023512276  0.03151610685898117  0.27874814966199374  1.0000
  H   H260      1.0  0.491050166966917  0.022377660472724287  0.31151485082806063  1.0000
  C   C371      1.0  0.4087453773332482  0.17358527404764826  0.08382251227131837  1.0000
  C   C372      1.0  0.41422721897414033  0.16555833210562584  0.05090153640640993  1.0000
  H   H261      1.0  0.40170676582039005  0.19364234750124207  0.08549174672895743  1.0000
  H   H262      1.0  0.39407601419680416  0.1602477189007223  0.09344511873926638  1.0000
  H   H263      1.0  0.42064624739616696  0.14459299825151659  0.04981205470753004  1.0000
  H   H264      1.0  0.4310059562075299  0.17656804063093307  0.04292837988861264  1.0000
  C   C373      1.0  0.08761384285133936  0.2420799639645362  0.14277945539519618  1.0000
  C   C374      1.0  0.07637980920942813  0.26749781713012605  0.12774989863917321  1.0000
  H   H265      1.0  0.09016406136376766  0.24607947166153682  0.1671108428404518  1.0000
  H   H266      1.0  0.10775857847939145  0.23718139339226896  0.13496613102216415  1.0000
  H   H267      1.0  0.06377061881532034  0.2609967981171366  0.10933118906104819  1.0000
  H   H268      1.0  0.061821191389649484  0.2774511308828744  0.1429006077163326  1.0000
  C   C375      1.0  0.15057208189657348  0.4978068771355895  0.21872395462293084  1.0000
  C   C376      1.0  0.16030311718790155  0.02346790886115232  0.20413921583863986  1.0000
  H   H269      1.0  0.1305607302970629  0.4933322882697205  0.2122215205943784  1.0000
  H   H270      1.0  0.1503067927801562  0.0009727417625848978  0.2433805638036407  1.0000
  H   H271      1.0  0.1638327280578772  0.0188901361894752  0.18056208495414725  1.0000
  H   H272      1.0  0.17985958463022256  0.03068663006284686  0.212363124316514  1.0000
  C   C377      1.0  0.007236222996656642  0.08533698835413048  0.98671118588066  1.0000
  C   C378      1.0  0.0018004151269138573  0.11401630068140155  0.9973748131190333  1.0000
  H   H273      1.0  0.4952638827035744  0.08302973814707264  0.966339812102788  1.0000
  H   H274      1.0  0.4996731373053487  0.07128077104042313  0.0023698455152445508  1.0000
  H   H275      1.0  0.4808491848582778  0.11817043939853632  0.9950406858310844  1.0000
  H   H276      1.0  0.009978059844868334  0.1273707443378943  0.9801978592580973  1.0000
  C   C379      1.0  0.20762685193498198  0.21684619256167778  0.5152552643472166  1.0000
  C   C380      1.0  0.21731132046359244  0.24506960151071452  0.5103246983237203  1.0000
  H   H277      1.0  0.2024346595755712  0.20744945404303378  0.49344340058592434  1.0000
  H   H278      1.0  0.18920365430226016  0.2176396729616738  0.5286287022179803  1.0000
  H   H279      1.0  0.23532050764658313  0.24628260504252375  0.4967734221833985  1.0000
  H   H280      1.0  0.22340174707088786  0.2543954468383786  0.5321943595226188  1.0000
  C   C381      1.0  0.04548834351759577  0.19629402995339845  0.2953048925578462  1.0000
  C   C382      1.0  0.07069182028764144  0.18003198581583466  0.2991439762019302  1.0000
  H   H281      1.0  0.028609570957012647  0.18671929600248718  0.30697108304085297  1.0000
  H   H282      1.0  0.039223449821235636  0.19596262063057  0.2718391328896643  1.0000
  H   H283      1.0  0.07293265526172661  0.1755053915192955  0.322894277101405  1.0000
  H   H284      1.0  0.08815251030252969  0.19138868360799874  0.2935998681484586  1.0000
  C   C383      1.0  0.49733806501736777  0.3668527077654751  0.2952048585312198  1.0000
  C   C384      1.0  0.4693259468679428  0.354193657457608  0.29631857069432704  1.0000
  H   H285      1.0  0.001152524942709472  0.3739088667929502  0.2724682357682258  1.0000
  H   H286      1.0  0.496337457094251  0.38493217151262527  0.3090051082489229  1.0000
  H   H287      1.0  0.46657079106768373  0.3413508535101999  0.31599637522092294  1.0000
  H   H288      1.0  0.46518695428114637  0.34104057731465287  0.277823390660292  1.0000
  C   C385      1.0  0.21736993898289073  0.39472504548710025  0.4399896627135197  1.0000
  C   C386      1.0  0.24491391722654368  0.3814282697540741  0.43668409387810986  1.0000
  H   H289      1.0  0.21285057363734602  0.4066554051565753  0.42038077051637757  1.0000
  H   H290      1.0  0.21807507649495028  0.4086257435481867  0.45920286476089534  1.0000
  H   H291      1.0  0.24474578122396842  0.3682140703618209  0.41621268607361117  1.0000
  H   H292      1.0  0.24908395835477354  0.3680570773547522  0.45613070865428035  1.0000
  C   C387      1.0  0.20899652910962038  0.33297045098235023  0.2939088621418157  1.0000
  C   C388      1.0  0.1946335353033849  0.3067284337982498  0.29529822362273783  1.0000
  H   H293      1.0  0.23054412576084737  0.32984317721270373  0.298441515037176  1.0000
  H   H294      1.0  0.20337483499301084  0.3460841421303257  0.3124351638730234  1.0000
  H   H295      1.0  0.20528650571775078  0.2942779770309563  0.3112614312939404  1.0000
  H   H296      1.0  0.19615788999815073  0.2969200232366458  0.27329518372167066  1.0000
  C   C389      1.0  0.49549759662595294  0.4607946084347565  0.7869121130105838  1.0000
  C   C390      1.0  0.4846878662668917  0.4886465192684865  0.7950082002322132  1.0000
  H   H297      1.0  0.00198292709260686  0.4514311736053728  0.8081926849415716  1.0000
  H   H298      1.0  0.013104794413775109  0.46367066964381637  0.7732652488003747  1.0000
  H   H299      1.0  0.4736306568231216  0.49749832100324487  0.7752436995492078  1.0000
  H   H300      1.0  0.4692820217048122  0.48723824670170257  0.8126542025291086  1.0000
  C   C391      1.0  0.44922491694925404  0.3928567629900542  0.48782593424626014  1.0000
  C   C392      1.0  0.44112432966669746  0.41955070511661097  0.4747703822823312  1.0000
  H   H301      1.0  0.47085777705726645  0.3928980573449698  0.49229412076890555  1.0000
  H   H302      1.0  0.44531965754274283  0.37794764382819973  0.4698953907180718  1.0000
  H   H303      1.0  0.4559242043811653  0.42419845649889526  0.4570065621318536  1.0000
  H   H304      1.0  0.44594414489951756  0.4338166599924161  0.4924208305359657  1.0000
  C   C393      1.0  0.34270141713686775  0.015188907208543167  0.7289412830914055  1.0000
  C   C394      1.0  0.33583905067232467  0.48735160272405836  0.7179842227082613  1.0000
  H   H305      1.0  0.36206350978233065  0.021159390275648688  0.7199471126085082  1.0000
  H   H306      1.0  0.34544913481222245  0.015010696602420513  0.7534207208960682  1.0000
  H   H307      1.0  0.32904426008102744  0.48768731641293284  0.6943606315758466  1.0000
  H   H308      1.0  0.318286389136511  0.48074601623338015  0.7297148795639828  1.0000
  C   C395      1.0  0.36410573006055297  0.258703057866868  0.6217514890936728  1.0000
  C   C396      1.0  0.36273307358473206  0.24412523791838855  0.5916234632521733  1.0000
  H   H309      1.0  0.3709950022165512  0.24423587563608232  0.6388039561659183  1.0000
  H   H310      1.0  0.3446343801958362  0.2655671763796462  0.6290250743185963  1.0000
  H   H311      1.0  0.38284050469328434  0.23817731934515607  0.5857370165298024  1.0000
  H   H312      1.0  0.3580191320992773  0.2580794824548598  0.5732461010717204  1.0000
  C   C397      1.0  0.04291761010997096  0.3239200843740028  0.5623623989747689  1.0000
  C   C398      1.0  0.042592785618017576  0.33055170633077463  0.5286375941314583  1.0000
  H   H313      1.0  0.05777220837636146  0.33482390876613666  0.5755713364461916  1.0000
  H   H314      1.0  0.04935050803212102  0.303761387648626  0.5663948817369974  1.0000
  H   H315      1.0  0.03516375151786956  0.35139453133342874  0.5252542210531168  1.0000
  H   H316      1.0  0.027369846808627522  0.3176691006558077  0.5181273524005788  1.0000
  C   C399      1.0  0.38553851137285117  0.30935526253165613  0.8110825568218896  1.0000
  C   C400      1.0  0.3853257412778184  0.30274330521748893  0.7775289213130283  1.0000
  H   H317      1.0  0.3708782386908729  0.3253131344435875  0.8158930820134341  1.0000
  H   H318      1.0  0.404823235056176  0.31884611968133963  0.8166533406157949  1.0000
  H   H319      1.0  0.3657557388433534  0.29551872893464437  0.7695239762045476  1.0000
  H   H320      1.0  0.3990804517075726  0.28595741374245365  0.7726539297487689  1.0000
  C   C401      1.0  0.43756988431943383  0.8852795885398138  0.5182273864272052  1.0000
  C   C402      1.0  0.4295896607035559  0.8596888041903046  0.5199390797717011  1.0000
  C   C403      1.0  0.42497403775116194  0.8491257197949933  0.547121659273646  1.0000
  C   C404      1.0  0.4290501437410651  0.8631230835767832  0.5738285214045229  1.0000
  C   C405      1.0  0.43505152725952334  0.8897079875050452  0.570714128708888  1.0000
  C   C406      1.0  0.4394890769373564  0.9005204493158052  0.543647144082156  1.0000
  H   H321      1.0  0.4278530245337218  0.8474572830302133  0.5006791951785666  1.0000
  H   H322      1.0  0.4212862119942305  0.8278975499460344  0.5474662209209147  1.0000
  H   H323      1.0  0.4386015890808328  0.9010975919996133  0.5903941562138534  1.0000
  H   H324      1.0  0.4458097355766493  0.9205986820785955  0.5422600055796033  1.0000
  C   C407      1.0  0.4855302849668371  0.8570733835192252  0.5987992374288398  1.0000
  C   C408      1.0  0.46542405059076064  0.8390410170687601  0.5959604940510197  1.0000
  C   C409      1.0  0.4711674111134533  0.8156603600609783  0.5819757371286501  1.0000
  C   C410      1.0  0.4963639278126021  0.8091923744809743  0.5734550610384511  1.0000
  C   C411      1.0  0.015664366275235493  0.8282193961794754  0.5755290998571716  1.0000
  C   C412      1.0  0.010350895468167955  0.8515385741210542  0.5894538363635653  1.0000
  C   C413      1.0  0.4356225209613722  0.8483546226732758  0.6036786749498382  1.0000
  C   C414      1.0  0.41612519421246064  0.8247961182618827  0.6097585207903533  1.0000
  C   C415      1.0  0.42406537154923873  0.803457591526161  0.627237799709538  1.0000
  C   C416      1.0  0.40799870254406984  0.7819021877929546  0.6307745582953733  1.0000
  C   C417      1.0  0.3830155334461113  0.7820149594589995  0.6187704751002064  1.0000
  C   C418      1.0  0.3743597311233931  0.803565884700568  0.6030540180280156  1.0000
  C   C419      1.0  0.39030420801770643  0.8250287339205492  0.5995928407067425  1.0000
  C   C420      1.0  0.45004969753989615  0.8649584012267457  0.6561431874478263  1.0000
  C   C421      1.0  0.44592909320357677  0.8789307349443154  0.6820119867334109  1.0000
  C   C422      1.0  0.42229686779051356  0.8912908771859824  0.6872715535555897  1.0000
  C   C423      1.0  0.4036934146258036  0.8912927119153208  0.6641481325563069  1.0000
  C   C424      1.0  0.4090470842547781  0.8793061419639506  0.6373545742690203  1.0000
  C   C425      1.0  0.43194861142458174  0.8651814828263776  0.6330153204918045  1.0000
  C   C426      1.0  0.4154651097318048  0.902255886126277  0.7195380845885245  1.0000
  C   C427      1.0  0.39314068222637394  0.826970354623213  0.7591048765868165  1.0000
  C   C428      1.0  0.41861890616510616  0.8355126317866399  0.7605831572025177  1.0000
  C   C429      1.0  0.4254032592628605  0.8590986224480113  0.7484368033917044  1.0000
  C   C430      1.0  0.4073206485910621  0.87460340034559  0.73349838874883  1.0000
  C   C431      1.0  0.38160734233880567  0.8646098468183137  0.7302083807620063  1.0000
  C   C432      1.0  0.3748490170347507  0.8413034203626487  0.7431127701968109  1.0000
  C   C433      1.0  0.3935377445313775  0.9251515392213848  0.7197203688148216  1.0000
  C   C434      1.0  0.3940954000602217  0.9453948422826991  0.6990377780652228  1.0000
  C   C435      1.0  0.3752988126500372  0.9643996048870225  0.6979663024911357  1.0000
  C   C436      1.0  0.3568449909227358  0.9658954425442267  0.7196314496800426  1.0000
  C   C437      1.0  0.3566510973871664  0.9471766851909625  0.741667834256652  1.0000
  C   C438      1.0  0.3746526283964256  0.9266613284014378  0.7414166377009013  1.0000
  C   C439      1.0  0.4377750451809377  0.9174557681773664  0.7681746283342762  1.0000
  C   C440      1.0  0.4567943777284271  0.9296314629727542  0.784293444491342  1.0000
  C   C441      1.0  0.47588381835248655  0.9434453170678558  0.769899659548989  1.0000
  C   C442      1.0  0.47620786131720544  0.9440611611526974  0.7396493698971682  1.0000
  C   C443      1.0  0.4575841185493311  0.9308470646246743  0.7232193367683757  1.0000
  C   C444      1.0  0.43773862638797995  0.9169694933892604  0.7374864119436688  1.0000
  H   H325      1.0  0.48040758715688947  0.8769881700684353  0.607082054833505  1.0000
  H   H326      1.0  0.45620174009608205  0.801342573927734  0.5772563540502539  1.0000
  H   H327      1.0  0.00021302916029894303  0.7907455927651346  0.5616977284422958  1.0000
  H   H328      1.0  0.02586976448304135  0.8662644516352291  0.5929528043171195  1.0000
  H   H329      1.0  0.44343058028790294  0.802175018185744  0.6371678440859845  1.0000
  H   H330      1.0  0.41516097603942004  0.7648722915975714  0.6432098992942186  1.0000
  H   H331      1.0  0.3540433980237029  0.8044517864506123  0.5952380260809402  1.0000
  H   H332      1.0  0.38273363156292506  0.8417111846326306  0.5877243591921135  1.0000
  H   H333      1.0  0.468273115224863  0.8542553003028148  0.6547805017073378  1.0000
  H   H334      1.0  0.46004765558136756  0.8762011635499263  0.7002515242549564  1.0000
  H   H335      1.0  0.384582011844822  0.8999443552902457  0.6683162169990733  1.0000
  H   H336      1.0  0.39391125368308316  0.8792777429498565  0.6195996460320207  1.0000
  H   H337      1.0  0.4325971913036884  0.8242274113401193  0.7734453100483022  1.0000
  H   H338      1.0  0.44629865597883817  0.8636312091489017  0.750099591212072  1.0000
  H   H339      1.0  0.3671599820968113  0.87546830812229  0.717337336002744  1.0000
  H   H340      1.0  0.35435876966861046  0.8360425922535526  0.7421413286493501  1.0000
  H   H341      1.0  0.4086424696848782  0.9449181472240782  0.6818252565503752  1.0000
  H   H342      1.0  0.37335086277402296  0.9781027258533236  0.6800335359845779  1.0000
  H   H343      1.0  0.3430447126291364  0.948148529021309  0.7602030279013374  1.0000
  H   H344      1.0  0.3737694653547809  0.9121127120281393  0.7588603489661743  1.0000
  H   H345      1.0  0.42228227655688555  0.9071904703602991  0.7791628104145929  1.0000
  H   H346      1.0  0.45602623474440496  0.9289685057968589  0.8085972670048159  1.0000
  H   H347      1.0  0.4911505396370081  0.9553729360803662  0.7285144712444661  1.0000
  H   H348      1.0  0.4603543468957883  0.9305140015557853  0.6993334341883629  1.0000
  C   C445      1.0  0.16559970753377032  0.8069448929322546  0.30511934205908  1.0000
  C   C446      1.0  0.150335328827688  0.8291853801810906  0.31201057500445356  1.0000
  C   C447      1.0  0.12529700998608032  0.8259162323147278  0.3211536850381057  1.0000
  C   C448      1.0  0.11375771321858338  0.8016078360583829  0.32393018502158044  1.0000
  C   C449      1.0  0.1293271862408265  0.779907473971823  0.31874619946396393  1.0000
  C   C450      1.0  0.15382974146827175  0.782488501649859  0.30743790849844277  1.0000
  H   H349      1.0  0.1577273999749228  0.8486928088569948  0.3121639605119474  1.0000
  H   H350      1.0  0.11363129650364893  0.8429155285432128  0.3280471409618489  1.0000
  H   H351      1.0  0.12126462712693671  0.760454643675226  0.3229276217769471  1.0000
  H   H352      1.0  0.1646855165104973  0.7645218552321382  0.30272519435515505  1.0000
  C   C451      1.0  0.0728871600562797  0.7652264872760275  0.2955338593299022  1.0000
  C   C452      1.0  0.0709474943564369  0.7719831799300951  0.32520395162728993  1.0000
  C   C453      1.0  0.05609599471142577  0.7563206125765106  0.3432189683335182  1.0000
  C   C454      1.0  0.04570664322225455  0.7332002392993151  0.3331244235577306  1.0000
  C   C455      1.0  0.051422038164507244  0.725105939562086  0.3049237199625662  1.0000
  C   C456      1.0  0.06511172104874612  0.7408442836627792  0.2860839782812625  1.0000
  C   C457      1.0  0.08525659994388553  0.7975195837899156  0.33728139310864946  1.0000
  C   C458      1.0  0.06346779033456265  0.8186582281161281  0.32674002968059734  1.0000
  C   C459      1.0  0.04206148872794268  0.8236983539820929  0.34441715367466547  1.0000
  C   C460      1.0  0.021608186536318734  0.8396945286159292  0.3348672385993993  1.0000
  C   C461      1.0  0.02088622054107567  0.8500147709774258  0.30671988648510223  1.0000
  C   C462      1.0  0.0416224262048346  0.8446375986594705  0.288738214454416  1.0000
  C   C463      1.0  0.0629851820576042  0.8296731727857966  0.2984148392967423  1.0000
  C   C464      1.0  0.10450105120762286  0.7778755006846452  0.3877341101822624  1.0000
  C   C465      1.0  0.11754581365885565  0.7813584532309831  0.41433871530814353  1.0000
  C   C466      1.0  0.12080590796451376  0.8064703516017719  0.4259760070723471  1.0000
  C   C467      1.0  0.10925204200748972  0.8274327869130608  0.4113221336607655  1.0000
  C   C468      1.0  0.09643454128550638  0.8238563173557909  0.3845485821788042  1.0000
  C   C469      1.0  0.09462662411591226  0.7993221735436526  0.3716308548737829  1.0000
  C   C470      1.0  0.1362217425553596  0.8134092803008116  0.4562707562915574  1.0000
  C   C471      1.0  0.06806237248407628  0.8272420215236386  0.5119230197713731  1.0000
  C   C472      1.0  0.07721829324537739  0.8026394069820217  0.5062032964267129  1.0000
  C   C473      1.0  0.09796743093425338  0.7984241069367687  0.4877792517005011  1.0000
  C   C474      1.0  0.11196888298375596  0.8189124965055005  0.47666213687475484  1.0000
  C   C475      1.0  0.10238743816458984  0.8440792154233203  0.4821506704689895  1.0000
  C   C476      1.0  0.08091486903118934  0.8483574169402693  0.4999922948623987  1.0000
  C   C477      1.0  0.15679668070461172  0.8368105407432209  0.4519003808171688  1.0000
  C   C478      1.0  0.16940810169679357  0.8400367449946131  0.4253224514317213  1.0000
  C   C479      1.0  0.18844886638329875  0.8587384038137817  0.42152782735502686  1.0000
  C   C480      1.0  0.1955849000738227  0.8744944706642087  0.4448335325806066  1.0000
  C   C481      1.0  0.18370490574176596  0.871827915981869  0.4720561256932019  1.0000
  C   C482      1.0  0.16419037171994164  0.8533814368820898  0.475432829836435  1.0000
  C   C483      1.0  0.1603604489791897  0.7921529952570037  0.5016706435313527  1.0000
  C   C484      1.0  0.18000967353652397  0.7774432006273815  0.5138014364935797  1.0000
  C   C485      1.0  0.19518992288578157  0.7612367501135545  0.49602872442962415  1.0000
  C   C486      1.0  0.1910700834191697  0.761254633802355  0.4659407121987752  1.0000
  C   C487      1.0  0.1719062028480768  0.7767809057048147  0.4529496266075611  1.0000
  C   C488      1.0  0.15602572474762852  0.7924861989845858  0.4708846160924884  1.0000
  H   H353      1.0  0.08196415071209662  0.7779134442628023  0.2794261580646837  1.0000
  H   H354      1.0  0.053670701533950205  0.7610625877833525  0.3664579842080137  1.0000
  H   H355      1.0  0.03714044557261808  0.7195904244916519  0.3486630423603634  1.0000
  H   H356      1.0  0.0686508930041319  0.7349440985833918  0.2632139768160999  1.0000
  H   H357      1.0  0.040849939572021064  0.814590157133638  0.3668003228769129  1.0000
  H   H358      1.0  0.005651625151145278  0.843201460806124  0.35049922249355  1.0000
  H   H359      1.0  0.04267499502892896  0.8519333884784102  0.26615053124217686  1.0000
  H   H360      1.0  0.07875300625866602  0.8259725399424158  0.28326079575202867  1.0000
  H   H361      1.0  0.10360453705823244  0.758083948426065  0.37863768269436926  1.0000
  H   H362      1.0  0.1260207679616248  0.7650486880659233  0.42653175166471585  1.0000
  H   H363      1.0  0.11069643995981815  0.8473502528764474  0.42078757555799157  1.0000
  H   H364      1.0  0.08882687229184964  0.8409423890622489  0.372833486171669  1.0000
  H   H365      1.0  0.06786513448471293  0.785523648301878  0.5153953119844935  1.0000
  H   H366      1.0  0.10468263643418593  0.7780363353130342  0.4838045663758791  1.0000
  H   H367      1.0  0.11264545469420072  0.8606191466757476  0.4707134467580387  1.0000
  H   H368      1.0  0.07388276473622518  0.8682706724580922  0.5033689990056317  1.0000
  H   H369      1.0  0.16438093427498693  0.8275144400200176  0.40646937188020077  1.0000
  H   H370      1.0  0.19823779717605666  0.8611426520226592  0.40094304765368505  1.0000
  H   H371      1.0  0.18982119441608392  0.8844605343012307  0.4898243918004184  1.0000
  H   H372      1.0  0.15589935810787198  0.8509747181907752  0.4968956859937196  1.0000
  H   H373      1.0  0.14892689125374542  0.8050096100756333  0.516117779954573  1.0000
  H   H374      1.0  0.18320237181779736  0.7768852269911866  0.5376740012033757  1.0000
  H   H375      1.0  0.20286817792380823  0.7485954908779273  0.45197373910336147  1.0000
  H   H376      1.0  0.16935376400405044  0.7769938430902903  0.4287502840774523  1.0000
  C   C489      1.0  0.00929773675711955  0.6229613889454223  0.02911990515094252  1.0000
  C   C490      1.0  0.013595486758404867  0.6051642167604698  0.05175338171759289  1.0000
  C   C491      1.0  0.016362331068063115  0.6142838191475103  0.08050093799164827  1.0000
  C   C492      1.0  0.018039250825001088  0.6410407013668784  0.08679841341453505  1.0000
  C   C493      1.0  0.01604608691935248  0.6582641099238694  0.06304633413236467  1.0000
  C   C494      1.0  0.01217690836673347  0.6493294374660407  0.034403257841674625  1.0000
  H   H377      1.0  0.012143865366547458  0.5843526035360728  0.04836044983226263  1.0000
  H   H378      1.0  0.014711693735459297  0.600771749361497  0.09888874817043763  1.0000
  H   H379      1.0  0.014923922609938994  0.6789477619691275  0.06715617654185073  1.0000
  H   H380      1.0  0.008438915966142343  0.6634203283686742  0.016361120799338675  1.0000
  C   C495      1.0  0.46677814922697475  0.6421734242638051  0.12362004942436189  1.0000
  C   C496      1.0  0.4860700636239735  0.6613574161221378  0.12050209996333577  1.0000
  C   C497      1.0  0.4776059447273737  0.6864423515431738  0.11274168247549728  1.0000
  C   C498      1.0  0.45193582124099085  0.6911073284741287  0.10447353672807058  1.0000
  C   C499      1.0  0.43395961990980936  0.6706924153725045  0.10208561336358019  1.0000
  C   C500      1.0  0.4419552550177617  0.646526110271903  0.1133563359946572  1.0000
  C   C501      1.0  0.016710551915049686  0.6523967733300525  0.12014353355233941  1.0000
  C   C502      1.0  0.03582571851244602  0.6769612890077287  0.12632252422813312  1.0000
  C   C503      1.0  0.032485809827903576  0.6933306229990478  0.15094556643546392  1.0000
  C   C504      1.0  0.049124399664441626  0.7141225053809432  0.15605130315447494  1.0000
  C   C505      1.0  0.06919453285725431  0.7188216948650288  0.1373022589906458  1.0000
  C   C506      1.0  0.0735069375512052  0.7019564863861806  0.11428398486823926  1.0000
  C   C507      1.0  0.05774637547637955  0.6806586995647127  0.10918847384972784  1.0000
  C   C508      1.0  0.014208285644626891  0.6277304991223635  0.17117755946957006  1.0000
  C   C509      1.0  0.025017884341823466  0.6121589122231238  0.19353538671840548  1.0000
  C   C510      1.0  0.05055145318645482  0.6022102288913223  0.1912052607915214  1.0000
  C   C511      1.0  0.06365313924282615  0.6074372887883885  0.16522798016150617  1.0000
  C   C512      1.0  0.05210950299488804  0.6215929491994012  0.1427114322570902  1.0000
  C   C513      1.0  0.0271916422564189  0.632681434452026  0.14486438680792713  1.0000
  C   C514      1.0  0.06562351244549228  0.5883886666780915  0.21935038992744893  1.0000
  C   C515      1.0  0.06921372669600598  0.6562790279204094  0.27981295630097247  1.0000
  C   C516      1.0  0.05042473896203426  0.637519864702674  0.2837542969500523  1.0000
  C   C517      1.0  0.04780058648052744  0.6171773772823533  0.2637297077978182  1.0000
  C   C518      1.0  0.0665815405157532  0.6129373078591825  0.24177335044250997  1.0000
  C   C519      1.0  0.08549897358792054  0.6326532897683321  0.23754302260539842  1.0000
  C   C520      1.0  0.08603483533620669  0.6540354860621048  0.2563538655678989  1.0000
  C   C521      1.0  0.0942505432724052  0.5756121908947508  0.21467279884239893  1.0000
  C   C522      1.0  0.09671350245924569  0.5597458363955315  0.1897983377814804  1.0000
  C   C523      1.0  0.11853343478385671  0.5445996519103652  0.1851692076248849  1.0000
  C   C524      1.0  0.13859850292122852  0.5444918167238957  0.205905816748862  1.0000
  C   C525      1.0  0.13754537277770934  0.5613811055953936  0.22967145619908613  1.0000
  C   C526      1.0  0.11524325159588492  0.576659552877724  0.23402404784651887  1.0000
  C   C527      1.0  0.05599673808894434  0.5549999189487537  0.2612710937211784  1.0000
  C   C528      1.0  0.04242118887717926  0.5351031171010476  0.2740198746701197  1.0000
  C   C529      1.0  0.022959189467947234  0.522782871484957  0.2579166193616401  1.0000
  C   C530      1.0  0.018541141415942722  0.5300360679618937  0.22857330488456526  1.0000
  C   C531      1.0  0.03162174554169742  0.5504969681031033  0.2167461707676086  1.0000
  C   C532      1.0  0.05034012255827323  0.5641500182792085  0.23322155265513828  1.0000
  H   H381      1.0  0.47151872388008614  0.6223549281228554  0.12961164302360884  1.0000
  H   H382      1.0  0.49211656499877116  0.7017178531367463  0.10936942428900313  1.0000
  H   H383      1.0  0.4470558284665493  0.7103500408734749  0.09554516640490976  1.0000
  H   H384      1.0  0.42892082789879626  0.6298657785954953  0.11322740324922764  1.0000
  H   H385      1.0  0.015699421997753225  0.6908858751476206  0.16480472507995805  1.0000
  H   H386      1.0  0.04583649687365951  0.726311228895294  0.17548013410368962  1.0000
  H   H387      1.0  0.091165214261648  0.7027906338634646  0.10135002982112078  1.0000
  H   H388      1.0  0.06311577064439676  0.6686414404646793  0.09005685510851202  1.0000
  H   H389      1.0  0.49519194136879724  0.63620729738915  0.1760967883033821  1.0000
  H   H390      1.0  0.013703519583308645  0.6088987875882785  0.21395499912689533  1.0000
  H   H391      1.0  0.08432968390297083  0.601989548410411  0.16329710114977986  1.0000
  H   H392      1.0  0.06375517438054251  0.6251419939239803  0.12301762228623409  1.0000
  H   H393      1.0  0.036485449624605086  0.6383600246433585  0.30170929324030477  1.0000
  H   H394      1.0  0.03202615525075937  0.6032091103531478  0.2676532646199422  1.0000
  H   H395      1.0  0.09985758781882348  0.6311540507577688  0.21998260497572772  1.0000
  H   H396      1.0  0.10098407100305543  0.6685955541057579  0.2522591394113253  1.0000
  H   H397      1.0  0.0800936012339769  0.5568679970938231  0.17438487266104907  1.0000
  H   H398      1.0  0.11890261097068618  0.5307776706316701  0.1670325940018463  1.0000
  H   H399      1.0  0.152911391530109  0.5619350349555948  0.24637936162406293  1.0000
  H   H400      1.0  0.11440924211240701  0.5881523672905116  0.25488003090893674  1.0000
  H   H401      1.0  0.07022601937496621  0.5644282413978107  0.2746445315919422  1.0000
  H   H402      1.0  0.046523740198562764  0.5278269673591682  0.29607626605205417  1.0000
  H   H403      1.0  0.003682298295753059  0.520415068867915  0.21495422790397448  1.0000
  H   H404      1.0  0.027026893680133397  0.5550918701846272  0.19393752350544355  1.0000
  C   C533      1.0  0.3199412983231165  0.7102512766897425  0.7846646818790444  1.0000
  C   C534      1.0  0.3464875248977349  0.706510044788809  0.7822838720453363  1.0000
  C   C535      1.0  0.3615001934264438  0.7018299342709515  0.8073857437934521  1.0000
  C   C536      1.0  0.35088175553150197  0.7009895407325656  0.8357976303337168  1.0000
  C   C537      1.0  0.3235979628288448  0.7041218542752407  0.837062505025948  1.0000
  C   C538      1.0  0.30838743972053057  0.7077730403556483  0.8120495524126115  1.0000
  H   H405      1.0  0.35602899178971514  0.7087472334726452  0.761416774091071  1.0000
  H   H406      1.0  0.3828429227069476  0.7028761256205551  0.8056607125787393  1.0000
  H   H407      1.0  0.313303990105793  0.7057057421269591  0.8580096302015144  1.0000
  H   H408      1.0  0.2872343691588286  0.7120212492945366  0.8137390159734127  1.0000
  C   C539      1.0  0.35701364794681034  0.7563992668223611  0.8595857218654726  1.0000
  C   C540      1.0  0.3765725298426986  0.7370748015074592  0.8582341510168315  1.0000
  C   C541      1.0  0.4000537003588987  0.7438844876826348  0.8451541462908383  1.0000
  C   C542      1.0  0.4037533512822259  0.7683706967655386  0.8338480783036866  1.0000
  C   C543      1.0  0.38275769781329066  0.7860701062075588  0.8313983561405249  1.0000
  C   C544      1.0  0.3600956461833704  0.7804597921573622  0.8460344457251507  1.0000
  C   C545      1.0  0.3699182391936608  0.7064866791129207  0.8646830112666796  1.0000
  C   C546      1.0  0.39593260097809896  0.688532430795091  0.8679885801020892  1.0000
  C   C547      1.0  0.4169782447862903  0.694345572142532  0.8873151540463082  1.0000
  C   C548      1.0  0.439742834345443  0.6788972244068643  0.8881821156104036  1.0000
  C   C549      1.0  0.44172425987243974  0.657656686531804  0.8696246921820231  1.0000
  C   C550      1.0  0.4213528728792224  0.6507302955682944  0.8509472279216912  1.0000
  C   C551      1.0  0.398476219630561  0.6656291122537985  0.8511028364075546  1.0000
  C   C552      1.0  0.3535344477500358  0.7181861030985304  0.9174009432987876  1.0000
  C   C553      1.0  0.340812879180456  0.7124441152917926  0.9432541817357863  1.0000
  C   C554      1.0  0.3307239197380563  0.6878422756744679  0.9486226744980693  1.0000
  C   C555      1.0  0.3338493701359596  0.6695235974671288  0.9260461061776775  1.0000
  C   C556      1.0  0.34549080425597634  0.6751674760388247  0.8997104814345028  1.0000
  C   C557      1.0  0.35576748852752377  0.6999144145881618  0.8950177740965402  1.0000
  C   C558      1.0  0.31740396586376346  0.6792084658350142  0.9794509385259534  1.0000
  C   C559      1.0  0.39028026845410574  0.6686334936681143  0.03016826174998711  1.0000
  C   C560      1.0  0.3783722382705461  0.6930976325238791  0.028764006313989524  1.0000
  C   C561      1.0  0.35521933305051306  0.695583248057421  0.014044821797912737  1.0000
  C   C562      1.0  0.3436726454341342  0.674922749139599  0.9988486477779954  1.0000
  C   C563      1.0  0.35636343635853013  0.6512012299365371  0.9993999464136256  1.0000
  C   C564      1.0  0.37965640762557284  0.6481513367661541  0.01471193760659229  1.0000
  C   C565      1.0  0.2970188228182185  0.6552166941339798  0.9779459821698189  1.0000
  C   C566      1.0  0.2783146066872661  0.65271948685735  0.9558918137662537  1.0000
  C   C567      1.0  0.2589335765722136  0.6339230344489901  0.9562319294567835  1.0000
  C   C568      1.0  0.25828171591196664  0.6164621068123296  0.9793175598237851  1.0000
  C   C569      1.0  0.27651439929436133  0.6184627086155567  0.00223868979144548  1.0000
  C   C570      1.0  0.29579273506769427  0.6373706723046126  0.0018207698579841833  1.0000
  C   C571      1.0  0.29462197942662366  0.7016669640724249  0.02416644245024057  1.0000
  C   C572      1.0  0.27924545126212935  0.720666722259892  0.03637881871862738  1.0000
  C   C573      1.0  0.2669651304859853  0.7392330493488243  0.018278661940848123  1.0000
  C   C574      1.0  0.2688647870898396  0.7375116365275224  0.9877848844331168  1.0000
  C   C575      1.0  0.2843230756497908  0.718218092578262  0.9757185578436044  1.0000
  C   C576      1.0  0.29856725885641416  0.7006568744449457  0.9934512562969093  1.0000
  H   H409      1.0  0.33905376094864687  0.752315347929096  0.8700226053101593  1.0000
  H   H410      1.0  0.4150130504187035  0.7292978571359098  0.8403925266234221  1.0000
  H   H411      1.0  0.42249996575467486  0.7714315966044895  0.822490881814037  1.0000
  H   H412      1.0  0.344157192279392  0.7953735876562609  0.8455787351594083  1.0000
  H   H413      1.0  0.4147186148947332  0.7107889618481656  0.9026959413847083  1.0000
  H   H414      1.0  0.45488089018040045  0.6839848991156717  0.9036851667591247  1.0000
  H   H415      1.0  0.42249242502869994  0.6334759870036868  0.8370358292855142  1.0000
  H   H416      1.0  0.3826908100946244  0.658656135094216  0.8357976303337168  1.0000
  H   H417      1.0  0.36354882163505997  0.7368087991104176  0.915629229538316  1.0000
  H   H418      1.0  0.34118427707416243  0.7271288307614338  0.9608890691408343  1.0000
  H   H419      1.0  0.32767087234673004  0.6492250229230077  0.928671443632028  1.0000
  H   H420      1.0  0.3463074569022631  0.6614230996975052  0.8826691292541048  1.0000
  H   H421      1.0  0.38784162791458016  0.7103015079343062  0.038545555735355015  1.0000
  H   H422      1.0  0.3465964829846357  0.7152072277342674  0.012038005845085157  1.0000
  H   H423      1.0  0.34808533921695517  0.635654194191544  0.985584135847336  1.0000
  H   H424      1.0  0.3890644191533129  0.628954140849671  0.015278374724918312  1.0000
  H   H425      1.0  0.2766414784724689  0.6669665185479443  0.9379679391731738  1.0000
  H   H426      1.0  0.2443867446018127  0.6333688328791576  0.9392039151466022  1.0000
  H   H427      1.0  0.27503550601386  0.6052503347840839  0.020932075612005004  1.0000
  H   H428      1.0  0.3079944938572442  0.6389407963635785  0.021031909570578138  1.0000
  H   H429      1.0  0.3052111892411497  0.6879727634769447  0.03904528127281308  1.0000
  H   H430      1.0  0.27682560028210634  0.7217789868971639  0.06047434815888168  1.0000
  H   H431      1.0  0.258073281810469  0.7513876346872431  0.9736200662628198  1.0000
  H   H432      1.0  0.28557678533386394  0.7166871574719396  0.951661485929142  1.0000
  C   C577      1.0  0.035896256143139  0.5774260136008154  0.9787351394909825  1.0000
  C   C578      1.0  0.057226403718020555  0.5941363616557669  0.9805290830351491  1.0000
  C   C579      1.0  0.08200701728300606  0.5853681620617032  0.9729487267952383  1.0000
  C   C580      1.0  0.08602122269434842  0.5595025316485502  0.9637078057133291  1.0000
  C   C581      1.0  0.0645124863987404  0.542995961747547  0.9628919726517314  1.0000
  C   C582      1.0  0.040332725343700235  0.5520579139817557  0.969665387743523  1.0000
  H   H433      1.0  0.05473154309468017  0.6146192555267911  0.987037963700973  1.0000
  H   H434      1.0  0.0980985614658879  0.5989254235028916  0.97306876762719  1.0000
  H   H435      1.0  0.06551004510885902  0.5225984682015541  0.9555339142487682  1.0000
  H   H436      1.0  0.02339222613018585  0.5389580650615167  0.9678558833507701  1.0000
  C   C583      1.0  0.11452257739517821  0.5137894549703617  0.9923575509391275  1.0000
  C   C584      1.0  0.12237329543371286  0.5216767397907546  0.9642057528680914  1.0000
  C   C585      1.0  0.14087479303477113  0.5059414500847476  0.949691927093787  1.0000
  C   C586      1.0  0.14999148696587558  0.9827703052272857  0.9624273701725111  1.0000
  C   C587      1.0  0.14202999728996624  0.9755644873949952  0.990808135015603  1.0000
  C   C588      1.0  0.12382060320669  0.9909002628351641  0.004706195781563061  1.0000
  C   C589      1.0  0.11410790593823113  0.5496182863521002  0.9515992425347967  1.0000
  C   C590      1.0  0.13950420026182406  0.565382123530788  0.961420360971139  1.0000
  C   C591      1.0  0.1593720959733271  0.5694472729734517  0.9414469003214029  1.0000
  C   C592      1.0  0.18059585703816572  0.5841254578455881  0.9492917909872814  1.0000
  C   C593      1.0  0.18377697417899133  0.5937507939623283  0.9777347992247185  1.0000
  C   C594      1.0  0.16551300278649073  0.5875019816252317  0.9988975533021239  1.0000
  C   C595      1.0  0.14355598818122667  0.5731937886724218  0.9905925061137643  1.0000
  C   C596      1.0  0.09795082043936068  0.5292650623331364  0.8999372252281894  1.0000
  C   C597      1.0  0.08904239441998515  0.5328319607759692  0.8711274255597886  1.0000
  C   C598      1.0  0.08620196931612961  0.5580758091933274  0.8596724180218821  1.0000
  C   C599      1.0  0.09692363968662272  0.5786188586822797  0.8753910980724423  1.0000
  C   C600      1.0  0.10726759698320144  0.5748318898149529  0.9032494629987076  1.0000
  C   C601      1.0  0.10680875039072223  0.550580514655961  0.9161960890225321  1.0000
  C   C602      1.0  0.06838181099244564  0.564297828945187  0.8307492464566382  1.0000
  C   C603      1.0  0.13034911554683687  0.5737231710076338  0.764666768467244  1.0000
  C   C604      1.0  0.1202175805588756  0.5493893833967962  0.7708799930099276  1.0000
  C   C605      1.0  0.10103386690317603  0.5469608583256382  0.792373970864385  1.0000
  C   C606      1.0  0.09136430014495456  0.5684277748713965  0.8074124195338858  1.0000
  C   C607      1.0  0.10347134515434958  0.5924351687034686  0.8023462518298514  1.0000
  C   C608      1.0  0.12174880539329479  0.595238014052803  0.7807389020785507  1.0000
  C   C609      1.0  0.048957001506589826  0.5892686999219429  0.8370736199177956  1.0000
  C   C610      1.0  0.038192818169186245  0.5944018521135321  0.865134275875683  1.0000
  C   C611      1.0  0.019225189187769855  0.6130832220744581  0.868230884744362  1.0000
  C   C612      1.0  0.010033424650715985  0.6277361436526405  0.8444116715154337  1.0000
  C   C613      1.0  0.02130715052143226  0.6240196822703525  0.8175069643096734  1.0000
  C   C614      1.0  0.03988960285776517  0.6049042474889571  0.8131477037271322  1.0000
  C   C615      1.0  0.0377830296609967  0.5397930685131394  0.7930742090507698  1.0000
  C   C616      1.0  0.01883540724659251  0.5222569477063854  0.7850159124614214  1.0000
  C   C617      1.0  0.006199160786940033  0.5074129375629182  0.8057807534106907  1.0000
  C   C618      1.0  0.013534464330805343  0.5117240258518888  0.8353552576381912  1.0000
  C   C619      1.0  0.03235753095038511  0.5301655403285057  0.8438270282042617  1.0000
  C   C620      1.0  0.04651498387750007  0.5431398886789994  0.8220840767724232  1.0000
  H   H437      1.0  0.1026465146551943  0.5266798975679643  0.00620892915932858  1.0000
  H   H438      1.0  0.14867415338186368  0.51131126339071  0.9283668955954099  1.0000
  H   H439      1.0  0.16484589633610933  0.9714183674724276  0.951814871436636  1.0000
  H   H440      1.0  0.1169359927347029  0.9849143836400401  0.02702341425069031  1.0000
  H   H441      1.0  0.15786892335597716  0.56197128390668  0.9190570621840469  1.0000
  H   H442      1.0  0.19452834630203608  0.5897242800357761  0.9322882294391641  1.0000
  H   H443      1.0  0.1681086820422568  0.5935905598734112  0.022153713374950187  1.0000
  H   H444      1.0  0.13036004116171385  0.5678874452099866  0.008774246197703171  1.0000
  H   H445      1.0  0.09788510445447812  0.5089032348863658  0.9086268476744686  1.0000
  H   H446      1.0  0.08269111497991256  0.5156171895670112  0.8588588079386541  1.0000
  H   H447      1.0  0.09566781802194256  0.5980848452798027  0.8658189532134815  1.0000
  H   H448      1.0  0.11446108002924868  0.5917889670472413  0.9148756398710638  1.0000
  H   H449      1.0  0.12751214943150083  0.5322861162168704  0.7581000903638138  1.0000
  H   H450      1.0  0.09333393159859905  0.5276166220236934  0.7966398663554081  1.0000
  H   H451      1.0  0.09603529788064212  0.6099634033082492  0.8129231829118152  1.0000
  H   H452      1.0  0.12774799772485917  0.6150082237706604  0.7758305658387493  1.0000
  H   H453      1.0  0.042463333320374726  0.5819602232639918  0.8840429298864405  1.0000
  H   H454      1.0  0.011870702542017721  0.6166209981977215  0.8903939790880314  1.0000
  H   H455      1.0  0.014123800339824195  0.6347081717380163  0.7980425657065472  1.0000
  H   H456      1.0  0.045754908034340035  0.6008996498853822  0.7904844392503309  1.0000
  H   H457      1.0  0.046231216735242116  0.5510440979238093  0.7757416467039702  1.0000
  H   H458      1.0  0.012749109667680137  0.5208318993164873  0.7619013833756166  1.0000
  H   H459      1.0  0.00343911794924421  0.5011462129730829  0.8525322114991273  1.0000
  H   H460      1.0  0.03618862667188767  0.5340644084670519  0.8675350925147164  1.0000
  C   C621      1.0  0.2785576705799544  0.6807225453284762  0.7345209587987886  1.0000
  C   C622      1.0  0.30128140363439754  0.6658949389687214  0.7303728811613475  1.0000
  C   C623      1.0  0.2992042378214014  0.6411177770554256  0.7184532711442208  1.0000
  C   C624      1.0  0.274598708796238  0.6316280535203428  0.7089544845714524  1.0000
  C   C625      1.0  0.2533562327621436  0.6486279305997943  0.7109262663851771  1.0000
  C   C626      1.0  0.25494490123885877  0.6719216424931425  0.7247554148216833  1.0000
  H   H461      1.0  0.32048381172145607  0.6725205498247445  0.737230769431179  1.0000
  H   H462      1.0  0.3160191356179069  0.62924586006739  0.7158190417763923  1.0000
  H   H463      1.0  0.23363744938375555  0.6434520790332069  0.7018809673997817  1.0000
  H   H464      1.0  0.23759374434800598  0.6845469579565744  0.7269161497968134  1.0000
  C   C627      1.0  0.235863950734418  0.5930876246601063  0.7320601217437792  1.0000
  C   C628      1.0  0.24414034915386426  0.5894308022241116  0.7026901315262708  1.0000
  C   C629      1.0  0.2284059727502669  0.5741894308951118  0.6841171472493041  1.0000
  C   C630      1.0  0.20524381112927015  0.5638861396839501  0.6938849142047789  1.0000
  C   C631      1.0  0.1970877069820062  0.5686697280860669  0.7226769300462237  1.0000
  C   C632      1.0  0.2127883322736267  0.582527273038707  0.7423702954214061  1.0000
  C   C633      1.0  0.2705695832113253  0.6030743597906515  0.6932647032396954  1.0000
  C   C634      1.0  0.290589239708519  0.5806088131071898  0.7038794249539402  1.0000
  C   C635      1.0  0.2978166662142704  0.5616229826498952  0.6829589755188076  1.0000
  C   C636      1.0  0.3145497892830354  0.5409685269145112  0.6911350899617378  1.0000
  C   C637      1.0  0.3233599663978596  0.5376999167384034  0.7197381526417773  1.0000
  C   C638      1.0  0.3158026940711393  0.5564591013317209  0.7405963586825648  1.0000
  C   C639      1.0  0.29923107852060277  0.5771078726105484  0.7326825556872323  1.0000
  C   C640      1.0  0.25445721895103657  0.618759242080439  0.6408668800927916  1.0000
  C   C641      1.0  0.2587289288024703  0.6315717611331668  0.6145490391765726  1.0000
  C   C642      1.0  0.2838327935177346  0.6381784565866155  0.6061617417885422  1.0000
  C   C643      1.0  0.30455410374349323  0.6311284216501745  0.6247325030871392  1.0000
  C   C644      1.0  0.3006014545801964  0.6180550728667475  0.6511370401597676  1.0000
  C   C645      1.0  0.27539596764441593  0.6125604916016947  0.6600422915078861  1.0000
  C   C646      1.0  0.2902669349970029  0.6537875152349554  0.5757069381267297  1.0000
  C   C647      1.0  0.31187622980706026  0.5843286953547966  0.5230112358783162  1.0000
  C   C648      1.0  0.28560897041108396  0.5905893974331328  0.5278062002212744  1.0000
  C   C649      1.0  0.27923615813876773  0.6127386895285672  0.5432492309540199  1.0000
  C   C650      1.0  0.29833790570865676  0.6287105652898374  0.5558335115036198  1.0000
  C   C651      1.0  0.3246901883533154  0.6209647442716971  0.5526746592405954  1.0000
  C   C652      1.0  0.33115484451720206  0.598874540171994  0.5365336132998348  1.0000
  C   C653      1.0  0.31101794254879805  0.6769570519619025  0.5811265593915105  1.0000
  C   C654      1.0  0.30976389154686623  0.6931633286686463  0.6064840736521161  1.0000
  C   C655      1.0  0.32609194666963165  0.7143017090393735  0.6101297581780557  1.0000
  C   C656      1.0  0.3441348668531867  0.7206252924306458  0.588489063751213  1.0000
  C   C657      1.0  0.34536021100506686  0.7046689605221114  0.5634916719864626  1.0000
  C   C658      1.0  0.3277244586436224  0.6844750521091197  0.5590301543989254  1.0000
  C   C659      1.0  0.2667967833649999  0.6729694217745414  0.5292466902046946  1.0000
  C   C660      1.0  0.2474374487816553  0.6877810392808342  0.5153797511359073  1.0000
  C   C661      1.0  0.22905722864336425  0.7011346831564306  0.5313763034826519  1.0000
  C   C662      1.0  0.23048147605537644  0.7000719586031313  0.5620267292409783  1.0000
  C   C663      1.0  0.24919120984746235  0.6850132810599809  0.5764671967290903  1.0000
  C   C664      1.0  0.26760156111031397  0.6702806615413368  0.5600127108382336  1.0000
  H   H465      1.0  0.24710316074903282  0.6056157291652919  0.7473675507959867  1.0000
  H   H466      1.0  0.23452995689864073  0.569435910964359  0.6620607558673696  1.0000
  H   H467      1.0  0.1949323566667919  0.5521609840651297  0.6772414751525168  1.0000
  H   H468      1.0  0.20705828245169097  0.5853974462672988  0.7644689233923607  1.0000
  H   H469      1.0  0.2917836621363657  0.5623223302022071  0.6599200276975649  1.0000
  H   H470      1.0  0.32156246254955906  0.528105111698068  0.6731534179310518  1.0000
  H   H471      1.0  0.32277650437483063  0.5556345095762807  0.7627839057882982  1.0000
  H   H472      1.0  0.2942856305743254  0.5910152850014445  0.7498372797644739  1.0000
  H   H473      1.0  0.2342134719877492  0.6159054714052311  0.6466755225722305  1.0000
  H   H474      1.0  0.24180373828350077  0.6368197391976735  0.6004108967467093  1.0000
  H   H475      1.0  0.3244389128098155  0.6359959837066052  0.6195485175295227  1.0000
  H   H476      1.0  0.31768077786262844  0.6140548429204277  0.6651684796278962  1.0000
  H   H477      1.0  0.2699131973086889  0.5786131369365999  0.519241064563686  1.0000
  H   H478      1.0  0.25952364151616986  0.6186390870897448  0.5466992933834457  1.0000
  H   H479      1.0  0.3402169382518727  0.6328069189225971  0.5639140378766628  1.0000
  H   H480      1.0  0.3511715413296795  0.5932994466323596  0.5336170656790832  1.0000
  H   H481      1.0  0.295728571785316  0.6906160935175918  0.624118961057164  1.0000
  H   H482      1.0  0.32422286411160123  0.7269830944108149  0.6297475422886758  1.0000
  H   H483      1.0  0.35839065660052194  0.7111406923829847  0.5458612305381533  1.0000
  H   H484      1.0  0.3280310159451687  0.673757207262412  0.5378607313864116  1.0000
  H   H485      1.0  0.28171166357194893  0.6631552635616492  0.5156709613023085  1.0000
  H   H486      1.0  0.2458316544876283  0.6877713768356872  0.4912426520001437  1.0000
  H   H487      1.0  0.21664394925340918  0.7116700740544166  0.5749533484594775  1.0000
  H   H488      1.0  0.25087104905352126  0.6860911266481473  0.6007021069131105  1.0000
  C   C665      1.0  0.4142443315744613  0.9248347206775359  0.46105460574266827  1.0000
  C   C666      1.0  0.3956590232293891  0.9057331961027381  0.4546079684711897  1.0000
  C   C667      1.0  0.3713142513535785  0.9129334655883836  0.4428862035289462  1.0000
  C   C668      1.0  0.3649126240659748  0.9394260348206596  0.43789561708947394  1.0000
  C   C669      1.0  0.3841376294071159  0.9575357158790445  0.44431557862051885  1.0000
  C   C670      1.0  0.40782718114724875  0.9509764076052564  0.45625964139970987  1.0000
  H   H489      1.0  0.40039057661146393  0.8853833479564244  0.45826032193223776  1.0000
  H   H490      1.0  0.35712945314306077  0.8978516094406752  0.4372842980378682  1.0000
  H   H491      1.0  0.38036279569231535  0.9785878730537315  0.44091219873685195  1.0000
  H   H492      1.0  0.4210737401130839  0.966675321727358  0.461030152980604  1.0000
  C   C671      1.0  0.3281917839975586  0.9791526411385593  0.46795250762315027  1.0000
  C   C672      1.0  0.32736219443771397  0.9763079919459349  0.4368797159746237  1.0000
  C   C673      1.0  0.3164864082369013  0.997053447603409  0.42030296627344593  1.0000
  C   C674      1.0  0.31252052383691054  0.5212985925326774  0.43322958549194523  1.0000
  C   C675      1.0  0.3148011283819851  0.5246749516634192  0.4638666733800546  1.0000
  C   C676      1.0  0.3220951014797617  0.5028020462037134  0.4810102825654487  1.0000
  C   C677      1.0  0.33814659016703336  0.9493286545084751  0.4215967396844806  1.0000
  C   C678      1.0  0.3125520744414862  0.9309691706968417  0.42499122765466946  1.0000
  C   C679      1.0  0.2924787669618436  0.9302922515566597  0.40308599880185925  1.0000
  C   C680      1.0  0.27056442065963054  0.9149085102143185  0.4071162585857181  1.0000
  C   C681      1.0  0.2676564429990948  0.9015683657293556  0.43294504426065233  1.0000
  C   C682      1.0  0.2864483018205458  0.9035738754180943  0.4546035225144508  1.0000
  C   C683      1.0  0.3080713579675575  0.9182529422493758  0.45122904134958725  1.0000
  C   C684      1.0  0.3606816991069238  0.9716149139872311  0.37637469071424323  1.0000
  C   C685      1.0  0.37356983488078277  0.969786714320165  0.34957224051347885  1.0000
  C   C686      1.0  0.37679704429214034  0.9458734114617307  0.33527848959775225  1.0000
  C   C687      1.0  0.36254795728411415  0.9246549653979977  0.34562200795092113  1.0000
  C   C688      1.0  0.3489756542577803  0.9265448522102121  0.3720354369370274  1.0000
  C   C689      1.0  0.34798081566504013  0.9496485864382327  0.3879408471706236  1.0000
  C   C690      1.0  0.3942647035290155  0.9430035580580978  0.3058329181156816  1.0000
  C   C691      1.0  0.33807772623805615  0.9571868318436729  0.23321488372002983  1.0000
  C   C692      1.0  0.3460021781663449  0.9773574509424636  0.25178564501862705  1.0000
  C   C693      1.0  0.3619775295844253  0.9725083452336167  0.27561152718266396  1.0000
  C   C694      1.0  0.3715836965289506  0.9473226672394212  0.2818692112927372  1.0000
  C   C695      1.0  0.3630222402664838  0.9268987496667594  0.2641943102770385  1.0000
  C   C696      1.0  0.34656137199851045  0.9315802096019615  0.23993717030932338  1.0000
  C   C697      1.0  0.4123337030258778  0.9168856347981044  0.30261182245831175  1.0000
  C   C698      1.0  0.4212233406539754  0.9030057277411205  0.3278292890816402  1.0000
  C   C699      1.0  0.4384028078252989  0.8820792424751037  0.3255173915773859  1.0000
  C   C700      1.0  0.44896136075848225  0.8757027622706863  0.2985860086311919  1.0000
  C   C701      1.0  0.44155965472854125  0.8892653805435786  0.27356638708274666  1.0000
  C   C702      1.0  0.4234066083349408  0.9097229808491509  0.27570711525255137  1.0000
  C   C703      1.0  0.42419035966111673  0.9734768455112317  0.2747267817916128  1.0000
  C   C704      1.0  0.4450400438129157  0.989597294400492  0.2711522325734964  1.0000
  C   C705      1.0  0.4609299178704127  0.9953579612630759  0.29521597342306727  1.0000
  C   C706      1.0  0.4551743595798641  0.9852512978018173  0.3229165068850997  1.0000
  C   C707      1.0  0.43371902261175965  0.969950154349216  0.3268511785990711  1.0000
  C   C708      1.0  0.4171574313701951  0.9639128195240267  0.3027652079658056  1.0000
  H   H493      1.0  0.3357961961452578  0.9630192834645936  0.481297046775111  1.0000
  H   H494      1.0  0.3137284005868122  0.9943227980551602  0.3966104628115775  1.0000
  H   H495      1.0  0.305676027421222  0.5379427029185022  0.4193448625962021  1.0000
  H   H496      1.0  0.32435865245743123  0.504124017287763  0.5047472455947066  1.0000
  H   H497      1.0  0.29294420263271304  0.9418433777063899  0.3829947202985409  1.0000
  H   H498      1.0  0.2552738326118299  0.9135716458186908  0.3902038391507495  1.0000
  H   H499      1.0  0.2851128310158879  0.8942830225256676  0.47625533183314084  1.0000
  H   H500      1.0  0.32237709968176814  0.9198105323576571  0.46900842234865114  1.0000
  H   H501      1.0  0.35980488362059776  0.9900871837545218  0.38758072467476856  1.0000
  H   H502      1.0  0.3829662368668317  0.9870975862412485  0.34126497034674935  1.0000
  H   H503      1.0  0.36298690507541254  0.9062744432252948  0.3336334856043405  1.0000
  H   H504      1.0  0.34065207128606734  0.9087299763235324  0.38128747291078385  1.0000
  H   H505      1.0  0.33860152648322267  0.9971997281200002  0.2466661258337253  1.0000
  H   H506      1.0  0.36828623545570455  0.9894221022966398  0.28837809195856096  1.0000
  H   H507      1.0  0.37015661456027105  0.9066986358717936  0.26824457686622266  1.0000
  H   H508      1.0  0.34117280058456484  0.9154635483929813  0.22590350786282537  1.0000
  H   H509      1.0  0.416058935433397  0.9086445312864523  0.35004351192780764  1.0000
  H   H510      1.0  0.4436221613152996  0.8713674730881137  0.34554198072961995  1.0000
  H   H511      1.0  0.45071011602148686  0.8836268452592858  0.2529260329221679  1.0000
  H   H512      1.0  0.41856964193822743  0.9210572419475901  0.2562316017575778  1.0000
  H   H513      1.0  0.41203287909158975  0.9686482297093139  0.2550734300270811  1.0000
  H   H514      1.0  0.44964060129280475  0.9979365240195056  0.2496538087623002  1.0000
  H   H515      1.0  0.4652555278971612  0.9913526844020469  0.34319896152819296  1.0000
  H   H516      1.0  0.43009401391307506  0.9626329637868517  0.3490209418778489  1.0000
  C   C709      1.0  0.20501652393503814  0.8462018972425457  0.2640542626397615  1.0000
  C   C710      1.0  0.18522817348252965  0.8640931252394384  0.2581389171985876  1.0000
  C   C711      1.0  0.18567055749414055  0.8795366306591342  0.23315486330405405  1.0000
  C   C712      1.0  0.2070218464323993  0.8793283945032342  0.2143809217824868  1.0000
  C   C713      1.0  0.2248203810618955  0.8584739228928  0.21882065418200294  1.0000
  C   C714      1.0  0.22396926984333762  0.8425934302871628  0.24320494851245217  1.0000
  H   H517      1.0  0.16907565705137306  0.8678259253566803  0.2729328382474462  1.0000
  H   H518      1.0  0.169179403300374  0.8930559282010256  0.2292513132872553  1.0000
  H   H519      1.0  0.24070194953832308  0.8565810608060984  0.20369706544095126  1.0000
  H   H520      1.0  0.23902361960888352  0.8272004897284138  0.2464038143861272  1.0000
  C   C715      1.0  0.2564076905882677  0.9099943041973293  0.20962574875234205  1.0000
  C   C716      1.0  0.239105056194176  0.9105765209335  0.1853875041007674  1.0000
  C   C717      1.0  0.24817024029527132  0.9213639820666484  0.15899563800484506  1.0000
  C   C718      1.0  0.2733064932965708  0.9314718625985358  0.1572014721628415  1.0000
  C   C719      1.0  0.2898963484540404  0.9297680199120405  0.1815668711771501  1.0000
  C   C720      1.0  0.2810657778524842  0.9196122518200657  0.2078340281865449  1.0000
  C   C721      1.0  0.20987961369463018  0.9005905999686352  0.18905564070823871  1.0000
  C   C722      1.0  0.19656869127683113  0.9285865055085052  0.19709526427928328  1.0000
  C   C723      1.0  0.18244510314240014  0.9423437559218392  0.17584959310869644  1.0000
  C   C724      1.0  0.16778946209528223  0.9645556499221812  0.18300513818220066  1.0000
  C   C725      1.0  0.1683384450678037  0.9739320840031788  0.21220618204362907  1.0000
  C   C726      1.0  0.1837906018453513  0.9614579894195019  0.23320599180655194  1.0000
  C   C727      1.0  0.19777370050071064  0.9390017426050635  0.22570566278794205  1.0000
  C   C728      1.0  0.21212907376105075  0.8713161750566347  0.14078166473454867  1.0000
  C   C729      1.0  0.2009222185900896  0.8594422170473526  0.11599678970192003  1.0000
  C   C730      1.0  0.17403704281204876  0.8557283124434879  0.11353195128584577  1.0000
  C   C731      1.0  0.15837048127960884  0.8694948773882646  0.13380129035655908  1.0000
  C   C732      1.0  0.16932216843673603  0.8826759559072838  0.15740198481176815  1.0000
  C   C733      1.0  0.19687633581983013  0.884980052990121  0.16106189639927243  1.0000
  C   C734      1.0  0.1595255677295668  0.8387791761002711  0.08776185223986566  1.0000
  C   C735      1.0  0.1407194010530926  0.9034263195744101  0.026633948440358223  1.0000
  C   C736      1.0  0.1655172114282635  0.8929509534375539  0.028922726969570062  1.0000
  C   C737      1.0  0.17093521844464388  0.8723968229622807  0.04742946649112636  1.0000
  C   C738      1.0  0.15204671205154316  0.862133828436439  0.06502567407254553  1.0000
  C   C739      1.0  0.12739545195582094  0.8737255593095089  0.06428453308416245  1.0000
  C   C740      1.0  0.12184864876519248  0.8939262768156958  0.04482858179884018  1.0000
  C   C741      1.0  0.13552947233871968  0.8220119408786579  0.09917039952985018  1.0000
  C   C742      1.0  0.13622670602738168  0.8114081747531253  0.12756139007344175  1.0000
  C   C743      1.0  0.11665899574854408  0.7951670508977317  0.1376188111104591  1.0000
  C   C744      1.0  0.09745112125756787  0.786524904735045  0.11779495690498867  1.0000
  C   C745      1.0  0.09729068589116402  0.7950489853227326  0.08855123185886637  1.0000
  C   C746      1.0  0.11605540399181236  0.8128608384327319  0.07953505389011124  1.0000
  C   C747      1.0  0.17529120831436262  0.8091048692083431  0.04329583821308692  1.0000
  C   C748      1.0  0.1893179187550219  0.7880058454175057  0.03228298107286901  1.0000
  C   C749      1.0  0.20565626957512556  0.7736307962920674  0.05015661635479873  1.0000
  C   C750      1.0  0.2078077033063225  0.7795256004087832  0.08019194399829122  1.0000
  C   C751      1.0  0.19344381800017552  0.7998409344036074  0.09136063192220933  1.0000
  C   C752      1.0  0.17733060959587893  0.8159662727438796  0.07346921281332382  1.0000
  H   H521      1.0  0.25006538121575245  0.9045832326293884  0.23171659629900349  1.0000
  H   H522      1.0  0.23552533329981015  0.9235301783214193  0.13966684108225674  1.0000
  H   H523      1.0  0.27991976531729584  0.9414080222835861  0.13787978877103554  1.0000
  H   H524      1.0  0.292928733112049  0.9197297581745127  0.22815093899436498  1.0000
  H   H525      1.0  0.1817667610238076  0.935377078110126  0.15306028575834585  1.0000
  H   H526      1.0  0.1545345127819342  0.9735593208104392  0.1661885291149565  1.0000
  H   H527      1.0  0.18545394239598365  0.9682543873505236  0.2564005481136579  1.0000
  H   H528      1.0  0.20990082165615345  0.9307990378571874  0.24274034603323183  1.0000
  H   H529      1.0  0.2334333197021267  0.8699605191765039  0.142182808000829  1.0000
  H   H530      1.0  0.2133960931838206  0.8504996035943831  0.09964055945499421  1.0000
  H   H531      1.0  0.13745192986546342  0.8685905246015807  0.13191064725332027  1.0000
  H   H532      1.0  0.1557134742662999  0.8929002321023488  0.17212921650954247  1.0000
  H   H533      1.0  0.18243313223195795  0.9009632534388676  0.017218568016012716  1.0000
  H   H534      1.0  0.19092104013365677  0.8655197619032002  0.04841157833476057  1.0000
  H   H535      1.0  0.11262775125297027  0.8678235815380232  0.08010769311808809  1.0000
  H   H536      1.0  0.10234322615031997  0.9034672247853556  0.04455471086372082  1.0000
  H   H537      1.0  0.15302110151039475  0.8141435196290011  0.14240866260316767  1.0000
  H   H538      1.0  0.11772073233499596  0.7877474883233263  0.15987949420454847  1.0000
  H   H539      1.0  0.08203775214746918  0.7885987644025441  0.07299994207952756  1.0000
  H   H540      1.0  0.11780149616318365  0.8177102804818961  0.05679843112711723  1.0000
  H   H541      1.0  0.16143708408690366  0.8188074838607877  0.0283827655236245  1.0000
  H   H542      1.0  0.1869203368000478  0.7817755803621291  0.009167713369100383  1.0000
  H   H543      1.0  0.22003997882364865  0.7677246908889774  0.0950454408674517  1.0000
  H   H544      1.0  0.19484708292126188  0.8033045939281429  0.11507136380670746  1.0000
  C   C753      1.0  0.31695361750644524  0.9435926428587949  0.1809508838709685  1.0000
  C   C754      1.0  0.3213546512418936  0.9642066232883769  0.20625793652258687  1.0000
  H   H545      1.0  0.3341182566180424  0.9292432802236378  0.17975314312549517  1.0000
  H   H546      1.0  0.3177579459422017  0.9540309548432934  0.15971210393332694  1.0000
  H   H547      1.0  0.30121100836384707  0.9713776847582491  0.21371669584568756  1.0000
  H   H548      1.0  0.32935006237861364  0.9812336319684357  0.19559853294311552  1.0000
  C   C755      1.0  0.3208050713810902  0.5587912801478611  0.5075148536647034  1.0000
  C   C756      1.0  0.3079142561153853  0.5520165866511503  0.47728679379657746  1.0000
  H   H549      1.0  0.3427363103995053  0.5596440173170627  0.5039714261437597  1.0000
  H   H550      1.0  0.31893664465505955  0.5422270798644353  0.5228245056952802  1.0000
  H   H551      1.0  0.3125164120753054  0.567246329396723  0.4613858295197201  1.0000
  H   H552      1.0  0.28592148254164185  0.5536761883847593  0.47822044471175706  1.0000
  C   C757      1.0  0.15255506671568275  0.9506389761783767  0.006949180956363765  1.0000
  C   C758      1.0  0.13478611921008787  0.92599676541563  0.004219363518648267  1.0000
  H   H553      1.0  0.17331979378241458  0.9464033520599993  0.9999245693088217  1.0000
  H   H554      1.0  0.15532690403934885  0.9546488152775754  0.030596851979621958  1.0000
  H   H555      1.0  0.1346480910569851  0.9175695159222452  0.9817739509220552  1.0000
  H   H556      1.0  0.11391379237956085  0.9318727856180397  0.007900615698499314  1.0000
  C   C759      1.0  0.17261971780667604  0.5570002308869478  0.7365861057040313  1.0000
  C   C760      1.0  0.1485224236131838  0.5763812897913696  0.7382622313946156  1.0000
  H   H557      1.0  0.16657494245615645  0.5387711428877114  0.7255779168183891  1.0000
  H   H558      1.0  0.17797659844456404  0.5500539948906793  0.7594938978014748  1.0000
  H   H559      1.0  0.13682046116435473  0.5784352832189665  0.7169283079827605  1.0000
  H   H560      1.0  0.15765046699974067  0.5965541928324282  0.7410009407458091  1.0000
  C   C761      1.0  0.2504316913299575  0.7610677373257446  0.03098787387481267  1.0000
  C   C762      1.0  0.22222385075493875  0.7514619087652568  0.03686231651398826  1.0000
  H   H561      1.0  0.2488150241276915  0.7776456192826621  0.01564078688849388  1.0000
  H   H562      1.0  0.2598730807698373  0.7706013767718677  0.05043915690555906  1.0000
  H   H563      1.0  0.21383452507622966  0.7430184772696332  0.016328643085360642  1.0000
  H   H564      1.0  0.22279028071979715  0.7349355669126939  0.05375961969604439  1.0000
  C   C763      1.0  0.27886441601371925  0.707893651594283  0.7493371096313419  1.0000
  C   C764      1.0  0.30486202239616766  0.721416745129438  0.7574398657880794  1.0000
  H   H565      1.0  0.2678812904307811  0.7215269778109028  0.7352545416607154  1.0000
  H   H566      1.0  0.2679839992569943  0.7072791797655444  0.770399829682121  1.0000
  H   H567      1.0  0.300532210163249  0.7427202042850576  0.763675320114458  1.0000
  H   H568      1.0  0.318238956887381  0.7227302455971609  0.7383022450052662  1.0000
  C   C765      1.0  0.20813584685076508  0.6099655651344055  0.9851239793248546  1.0000
  C   C766      1.0  0.23542546955557486  0.5970743159706573  0.9819540121699829  1.0000
  H   H569      1.0  0.20777516390981973  0.627698932035772  0.9717772171945247  1.0000
  H   H570      1.0  0.20590017913547962  0.6174068882743868  0.008242954367398525  1.0000
  H   H571      1.0  0.2357430154591171  0.5857162611934773  0.9618071592074277  1.0000
  H   H572      1.0  0.2385788787801072  0.5819709435928165  0.00014686714576939153  1.0000
  C   C767      1.0  0.4661810334205981  0.6402839265384996  0.871494216990752  1.0000
  C   C768      1.0  0.4867993742313757  0.6476674358242381  0.8476527739781288  1.0000
  H   H573      1.0  0.47487474281996084  0.6405212693732016  0.8941997180565734  1.0000
  H   H574      1.0  0.4593407564377749  0.6194069774699333  0.8687177170072774  1.0000
  H   H575      1.0  0.49423703837921085  0.6674499647846918  0.8530012599350866  1.0000
  H   H576      1.0  0.47618882601986284  0.6488586207075628  0.8263499722634462  1.0000
  C   C769      1.0  0.0061120357541664195  0.5013504920307098  0.2717924503439053  1.0000
  C   C770      1.0  0.48350151159365423  0.5144279900456203  0.2896073989968809  1.0000
  H   H577      1.0  0.4976772475752898  0.9888033961370164  0.2536573928057253  1.0000
  H   H578      1.0  0.018008893695539287  0.9876764877061951  0.28556824729954416  1.0000
  H   H579      1.0  0.4754115023512276  0.5315161068589812  0.27874814966199374  1.0000
  H   H580      1.0  0.491050166966917  0.5223776604727244  0.31151485082806063  1.0000
  C   C771      1.0  0.4087453773332482  0.6735852740476485  0.08382251227131837  1.0000
  C   C772      1.0  0.41422721897414033  0.665558332105626  0.05090153640640993  1.0000
  H   H581      1.0  0.40170676582039005  0.6936423475012422  0.08549174672895743  1.0000
  H   H582      1.0  0.39407601419680416  0.6602477189007223  0.09344511873926638  1.0000
  H   H583      1.0  0.42064624739616696  0.6445929982515168  0.04981205470753004  1.0000
  H   H584      1.0  0.4310059562075299  0.6765680406309331  0.04292837988861264  1.0000
  C   C773      1.0  0.08761384285133936  0.7420799639645363  0.14277945539519618  1.0000
  C   C774      1.0  0.07637980920942812  0.7674978171301261  0.12774989863917321  1.0000
  H   H585      1.0  0.09016406136376766  0.7460794716615369  0.1671108428404518  1.0000
  H   H586      1.0  0.10775857847939145  0.7371813933922692  0.13496613102216415  1.0000
  H   H587      1.0  0.06377061881532034  0.7609967981171368  0.10933118906104819  1.0000
  H   H588      1.0  0.061821191389649484  0.7774511308828743  0.1429006077163326  1.0000
  C   C775      1.0  0.1505720818965735  0.9978068771355895  0.21872395462293084  1.0000
  C   C776      1.0  0.16030311718790155  0.5234679088611524  0.20413921583863986  1.0000
  H   H589      1.0  0.1305607302970629  0.9933322882697204  0.2122215205943784  1.0000
  H   H590      1.0  0.1503067927801562  0.500972741762585  0.2433805638036407  1.0000
  H   H591      1.0  0.1638327280578772  0.5188901361894752  0.18056208495414725  1.0000
  H   H592      1.0  0.17985958463022256  0.5306866300628469  0.212363124316514  1.0000
  C   C777      1.0  0.007236222996656641  0.5853369883541305  0.98671118588066  1.0000
  C   C778      1.0  0.0018004151269138573  0.6140163006814017  0.9973748131190333  1.0000
  H   H593      1.0  0.4952638827035744  0.5830297381470726  0.966339812102788  1.0000
  H   H594      1.0  0.4996731373053487  0.5712807710404232  0.0023698455152445508  1.0000
  H   H595      1.0  0.4808491848582778  0.6181704393985364  0.9950406858310844  1.0000
  H   H596      1.0  0.009978059844868332  0.6273707443378944  0.9801978592580973  1.0000
  C   C779      1.0  0.20762685193498198  0.7168461925616779  0.5152552643472166  1.0000
  C   C780      1.0  0.21731132046359244  0.7450696015107144  0.5103246983237203  1.0000
  H   H597      1.0  0.2024346595755712  0.7074494540430338  0.49344340058592434  1.0000
  H   H598      1.0  0.1892036543022602  0.7176396729616739  0.5286287022179803  1.0000
  H   H599      1.0  0.23532050764658313  0.7462826050425239  0.4967734221833985  1.0000
  H   H600      1.0  0.22340174707088786  0.7543954468383787  0.5321943595226188  1.0000
  C   C781      1.0  0.04548834351759577  0.6962940299533986  0.2953048925578462  1.0000
  C   C782      1.0  0.07069182028764144  0.6800319858158347  0.2991439762019302  1.0000
  H   H601      1.0  0.028609570957012647  0.6867192960024875  0.30697108304085297  1.0000
  H   H602      1.0  0.03922344982123563  0.6959626206305701  0.2718391328896643  1.0000
  H   H603      1.0  0.07293265526172657  0.6755053915192957  0.322894277101405  1.0000
  H   H604      1.0  0.08815251030252969  0.6913886836079989  0.2935998681484586  1.0000
  C   C783      1.0  0.49733806501736777  0.8668527077654752  0.2952048585312198  1.0000
  C   C784      1.0  0.4693259468679428  0.8541936574576081  0.29631857069432704  1.0000
  H   H605      1.0  0.0011525249427094709  0.8739088667929503  0.2724682357682258  1.0000
  H   H606      1.0  0.496337457094251  0.8849321715126253  0.3090051082489229  1.0000
  H   H607      1.0  0.46657079106768373  0.8413508535101998  0.31599637522092294  1.0000
  H   H608      1.0  0.46518695428114637  0.8410405773146529  0.277823390660292  1.0000
  C   C785      1.0  0.21736993898289073  0.8947250454871004  0.4399896627135197  1.0000
  C   C786      1.0  0.24491391722654368  0.8814282697540743  0.43668409387810986  1.0000
  H   H609      1.0  0.21285057363734605  0.9066554051565754  0.42038077051637757  1.0000
  H   H610      1.0  0.21807507649495028  0.9086257435481869  0.45920286476089534  1.0000
  H   H611      1.0  0.24474578122396842  0.868214070361821  0.41621268607361117  1.0000
  H   H612      1.0  0.24908395835477354  0.8680570773547523  0.45613070865428035  1.0000
  C   C787      1.0  0.20899652910962038  0.8329704509823503  0.2939088621418157  1.0000
  C   C788      1.0  0.1946335353033849  0.8067284337982498  0.29529822362273783  1.0000
  H   H613      1.0  0.23054412576084737  0.8298431772127037  0.298441515037176  1.0000
  H   H614      1.0  0.20337483499301084  0.8460841421303257  0.3124351638730234  1.0000
  H   H615      1.0  0.20528650571775078  0.7942779770309564  0.3112614312939404  1.0000
  H   H616      1.0  0.19615788999815073  0.7969200232366458  0.27329518372167066  1.0000
  C   C789      1.0  0.49549759662595294  0.9607946084347565  0.7869121130105838  1.0000
  C   C790      1.0  0.4846878662668917  0.9886465192684865  0.7950082002322132  1.0000
  H   H617      1.0  0.001982927092606858  0.9514311736053731  0.8081926849415716  1.0000
  H   H618      1.0  0.013104794413775109  0.9636706696438163  0.7732652488003747  1.0000
  H   H619      1.0  0.4736306568231216  0.997498321003245  0.7752436995492078  1.0000
  H   H620      1.0  0.4692820217048122  0.9872382467017027  0.8126542025291086  1.0000
  C   C791      1.0  0.44922491694925404  0.8928567629900542  0.48782593424626014  1.0000
  C   C792      1.0  0.44112432966669746  0.9195507051166109  0.4747703822823312  1.0000
  H   H621      1.0  0.47085777705726645  0.8928980573449697  0.49229412076890555  1.0000
  H   H622      1.0  0.44531965754274283  0.8779476438282  0.4698953907180718  1.0000
  H   H623      1.0  0.4559242043811653  0.9241984564988955  0.4570065621318536  1.0000
  H   H624      1.0  0.44594414489951756  0.9338166599924163  0.4924208305359657  1.0000
  C   C793      1.0  0.34270141713686775  0.5151889072085433  0.7289412830914055  1.0000
  C   C794      1.0  0.33583905067232467  0.9873516027240585  0.7179842227082613  1.0000
  H   H625      1.0  0.36206350978233065  0.5211593902756487  0.7199471126085082  1.0000
  H   H626      1.0  0.34544913481222245  0.5150106966024206  0.7534207208960682  1.0000
  H   H627      1.0  0.32904426008102744  0.9876873164129328  0.6943606315758466  1.0000
  H   H628      1.0  0.3182863891365111  0.9807460162333803  0.7297148795639828  1.0000
  C   C795      1.0  0.36410573006055297  0.7587030578668679  0.6217514890936728  1.0000
  C   C796      1.0  0.36273307358473206  0.7441252379183888  0.5916234632521733  1.0000
  H   H629      1.0  0.3709950022165512  0.7442358756360824  0.6388039561659183  1.0000
  H   H630      1.0  0.3446343801958362  0.7655671763796463  0.6290250743185963  1.0000
  H   H631      1.0  0.38284050469328434  0.7381773193451562  0.5857370165298024  1.0000
  H   H632      1.0  0.3580191320992773  0.7580794824548599  0.5732461010717204  1.0000
  C   C797      1.0  0.04291761010997096  0.8239200843740029  0.5623623989747689  1.0000
  C   C798      1.0  0.04259278561801757  0.8305517063307746  0.5286375941314583  1.0000
  H   H633      1.0  0.057772208376361454  0.8348239087661368  0.5755713364461916  1.0000
  H   H634      1.0  0.04935050803212102  0.803761387648626  0.5663948817369974  1.0000
  H   H635      1.0  0.03516375151786955  0.8513945313334288  0.5252542210531168  1.0000
  H   H636      1.0  0.027369846808627522  0.8176691006558079  0.5181273524005788  1.0000
  C   C799      1.0  0.38553851137285117  0.8093552625316562  0.8110825568218896  1.0000
  C   C800      1.0  0.3853257412778184  0.8027433052174889  0.7775289213130283  1.0000
  H   H637      1.0  0.3708782386908729  0.8253131344435874  0.8158930820134341  1.0000
  H   H638      1.0  0.404823235056176  0.8188461196813397  0.8166533406157949  1.0000
  H   H639      1.0  0.3657557388433534  0.7955187289346445  0.7695239762045476  1.0000
  H   H640      1.0  0.3990804517075726  0.7859574137424538  0.7726539297487689  1.0000
  C   C801      1.0  0.9375698843194337  0.38527958853981376  0.5182273864272052  1.0000
  C   C802      1.0  0.9295896607035558  0.3596888041903046  0.5199390797717011  1.0000
  C   C803      1.0  0.9249740377511616  0.34912571979499335  0.547121659273646  1.0000
  C   C804      1.0  0.9290501437410649  0.363123083576783  0.5738285214045229  1.0000
  C   C805      1.0  0.9350515272595235  0.389707987505045  0.570714128708888  1.0000
  C   C806      1.0  0.9394890769373564  0.40052044931580505  0.543647144082156  1.0000
  H   H641      1.0  0.9278530245337218  0.3474572830302132  0.5006791951785666  1.0000
  H   H642      1.0  0.9212862119942304  0.3278975499460342  0.5474662209209147  1.0000
  H   H643      1.0  0.9386015890808326  0.40109759199961326  0.5903941562138534  1.0000
  H   H644      1.0  0.9458097355766492  0.4205986820785954  0.5422600055796033  1.0000
  C   C807      1.0  0.9855302849668368  0.3570733835192251  0.5987992374288398  1.0000
  C   C808      1.0  0.9654240505907604  0.33904101706876016  0.5959604940510197  1.0000
  C   C809      1.0  0.971167411113453  0.31566036006097825  0.5819757371286501  1.0000
  C   C810      1.0  0.9963639278126019  0.3091923744809743  0.5734550610384511  1.0000
  C   C811      1.0  0.5156643662752355  0.3282193961794752  0.5755290998571716  1.0000
  C   C812      1.0  0.5103508954681679  0.3515385741210539  0.5894538363635653  1.0000
  C   C813      1.0  0.9356225209613722  0.3483546226732757  0.6036786749498382  1.0000
  C   C814      1.0  0.9161251942124606  0.32479611826188276  0.6097585207903533  1.0000
  C   C815      1.0  0.9240653715492386  0.3034575915261608  0.627237799709538  1.0000
  C   C816      1.0  0.9079987025440697  0.2819021877929546  0.6307745582953733  1.0000
  C   C817      1.0  0.8830155334461112  0.28201495945899924  0.6187704751002064  1.0000
  C   C818      1.0  0.8743597311233927  0.3035658847005679  0.6030540180280156  1.0000
  C   C819      1.0  0.8903042080177062  0.3250287339205492  0.5995928407067425  1.0000
  C   C820      1.0  0.950049697539896  0.3649584012267458  0.6561431874478263  1.0000
  C   C821      1.0  0.9459290932035768  0.37893073494431523  0.6820119867334109  1.0000
  C   C822      1.0  0.9222968677905133  0.39129087718598227  0.6872715535555897  1.0000
  C   C823      1.0  0.9036934146258033  0.3912927119153208  0.6641481325563069  1.0000
  C   C824      1.0  0.909047084254778  0.3793061419639506  0.6373545742690203  1.0000
  C   C825      1.0  0.9319486114245815  0.3651814828263775  0.6330153204918045  1.0000
  C   C826      1.0  0.9154651097318048  0.402255886126277  0.7195380845885245  1.0000
  C   C827      1.0  0.8931406822263739  0.326970354623213  0.7591048765868165  1.0000
  C   C828      1.0  0.9186189061651061  0.33551263178664  0.7605831572025177  1.0000
  C   C829      1.0  0.9254032592628605  0.35909862244801116  0.7484368033917044  1.0000
  C   C830      1.0  0.907320648591062  0.37460340034558975  0.73349838874883  1.0000
  C   C831      1.0  0.8816073423388057  0.3646098468183137  0.7302083807620063  1.0000
  C   C832      1.0  0.8748490170347506  0.34130342036264877  0.7431127701968109  1.0000
  C   C833      1.0  0.8935377445313774  0.4251515392213847  0.7197203688148216  1.0000
  C   C834      1.0  0.8940954000602216  0.44539484228269893  0.6990377780652228  1.0000
  C   C835      1.0  0.8752988126500372  0.46439960488702253  0.6979663024911357  1.0000
  C   C836      1.0  0.8568449909227358  0.46589544254422666  0.7196314496800426  1.0000
  C   C837      1.0  0.8566510973871663  0.44717668519096226  0.741667834256652  1.0000
  C   C838      1.0  0.8746526283964254  0.4266613284014378  0.7414166377009013  1.0000
  C   C839      1.0  0.9377750451809375  0.41745576817736635  0.7681746283342762  1.0000
  C   C840      1.0  0.9567943777284272  0.4296314629727543  0.784293444491342  1.0000
  C   C841      1.0  0.9758838183524866  0.44344531706785584  0.769899659548989  1.0000
  C   C842      1.0  0.9762078613172052  0.4440611611526975  0.7396493698971682  1.0000
  C   C843      1.0  0.9575841185493312  0.4308470646246742  0.7232193367683757  1.0000
  C   C844      1.0  0.9377386263879797  0.4169694933892604  0.7374864119436688  1.0000
  H   H645      1.0  0.9804075871568895  0.37698817006843516  0.607082054833505  1.0000
  H   H646      1.0  0.9562017400960819  0.30134257392773384  0.5772563540502539  1.0000
  H   H647      1.0  0.500213029160299  0.2907455927651345  0.5616977284422958  1.0000
  H   H648      1.0  0.5258697644830413  0.3662644516352289  0.5929528043171195  1.0000
  H   H649      1.0  0.943430580287903  0.30217501818574405  0.6371678440859845  1.0000
  H   H650      1.0  0.91516097603942  0.2648722915975714  0.6432098992942186  1.0000
  H   H651      1.0  0.8540433980237025  0.30445178645061227  0.5952380260809402  1.0000
  H   H652      1.0  0.882733631562925  0.34171118463263045  0.5877243591921135  1.0000
  H   H653      1.0  0.9682731152248628  0.3542553003028149  0.6547805017073378  1.0000
  H   H654      1.0  0.9600476555813673  0.3762011635499262  0.7002515242549564  1.0000
  H   H655      1.0  0.884582011844822  0.3999443552902455  0.6683162169990733  1.0000
  H   H656      1.0  0.893911253683083  0.37927774294985617  0.6195996460320207  1.0000
  H   H657      1.0  0.9325971913036883  0.3242274113401193  0.7734453100483022  1.0000
  H   H658      1.0  0.9462986559788379  0.36363120914890157  0.750099591212072  1.0000
  H   H659      1.0  0.867159982096811  0.37546830812229004  0.717337336002744  1.0000
  H   H660      1.0  0.8543587696686105  0.33604259225355254  0.7421413286493501  1.0000
  H   H661      1.0  0.9086424696848782  0.44491814722407813  0.6818252565503752  1.0000
  H   H662      1.0  0.8733508627740226  0.4781027258533233  0.6800335359845779  1.0000
  H   H663      1.0  0.8430447126291364  0.4481485290213088  0.7602030279013374  1.0000
  H   H664      1.0  0.8737694653547806  0.41211271202813915  0.7588603489661743  1.0000
  H   H665      1.0  0.9222822765568857  0.4071904703602991  0.7791628104145929  1.0000
  H   H666      1.0  0.9560262347444048  0.4289685057968587  0.8085972670048159  1.0000
  H   H667      1.0  0.9911505396370079  0.45537293608036594  0.7285144712444661  1.0000
  H   H668      1.0  0.960354346895788  0.4305140015557854  0.6993334341883629  1.0000
  C   C845      1.0  0.6655997075337703  0.3069448929322546  0.30511934205908  1.0000
  C   C846      1.0  0.6503353288276879  0.3291853801810905  0.31201057500445356  1.0000
  C   C847      1.0  0.6252970099860803  0.32591623231472755  0.3211536850381057  1.0000
  C   C848      1.0  0.6137577132185832  0.30160783605838265  0.32393018502158044  1.0000
  C   C849      1.0  0.6293271862408265  0.279907473971823  0.31874619946396393  1.0000
  C   C850      1.0  0.6538297414682718  0.28248850164985895  0.30743790849844277  1.0000
  H   H669      1.0  0.6577273999749226  0.3486928088569947  0.3121639605119474  1.0000
  H   H670      1.0  0.6136312965036489  0.34291552854321256  0.3280471409618489  1.0000
  H   H671      1.0  0.6212646271269366  0.2604546436752258  0.3229276217769471  1.0000
  H   H672      1.0  0.6646855165104972  0.2645218552321382  0.30272519435515505  1.0000
  C   C851      1.0  0.5728871600562797  0.2652264872760274  0.2955338593299022  1.0000
  C   C852      1.0  0.5709474943564368  0.27198317993009485  0.32520395162728993  1.0000
  C   C853      1.0  0.5560959947114257  0.25632061257651045  0.3432189683335182  1.0000
  C   C854      1.0  0.5457066432222545  0.23320023929931508  0.3331244235577306  1.0000
  C   C855      1.0  0.5514220381645072  0.2251059395620859  0.3049237199625662  1.0000
  C   C856      1.0  0.565111721048746  0.24084428366277913  0.2860839782812625  1.0000
  C   C857      1.0  0.5852565999438855  0.29751958378991555  0.33728139310864946  1.0000
  C   C858      1.0  0.5634677903345627  0.31865822811612793  0.32674002968059734  1.0000
  C   C859      1.0  0.5420614887279426  0.3236983539820929  0.34441715367466547  1.0000
  C   C860      1.0  0.5216081865363186  0.33969452861592914  0.3348672385993993  1.0000
  C   C861      1.0  0.5208862205410756  0.3500147709774258  0.30671988648510223  1.0000
  C   C862      1.0  0.5416224262048345  0.3446375986594705  0.288738214454416  1.0000
  C   C863      1.0  0.5629851820576042  0.32967317278579644  0.2984148392967423  1.0000
  C   C864      1.0  0.6045010512076228  0.277875500684645  0.3877341101822624  1.0000
  C   C865      1.0  0.6175458136588556  0.281358453230983  0.41433871530814353  1.0000
  C   C866      1.0  0.6208059079645137  0.30647035160177194  0.4259760070723471  1.0000
  C   C867      1.0  0.6092520420074897  0.32743278691306077  0.4113221336607655  1.0000
  C   C868      1.0  0.5964345412855062  0.32385631735579073  0.3845485821788042  1.0000
  C   C869      1.0  0.5946266241159123  0.29932217354365237  0.3716308548737829  1.0000
  C   C870      1.0  0.6362217425553595  0.3134092803008115  0.4562707562915574  1.0000
  C   C871      1.0  0.5680623724840763  0.3272420215236386  0.5119230197713731  1.0000
  C   C872      1.0  0.5772182932453774  0.30263940698202163  0.5062032964267129  1.0000
  C   C873      1.0  0.5979674309342533  0.2984241069367685  0.4877792517005011  1.0000
  C   C874      1.0  0.6119688829837558  0.31891249650550035  0.47666213687475484  1.0000
  C   C875      1.0  0.6023874381645897  0.3440792154233202  0.4821506704689895  1.0000
  C   C876      1.0  0.5809148690311892  0.3483574169402693  0.4999922948623987  1.0000
  C   C877      1.0  0.6567966807046117  0.336810540743221  0.4519003808171688  1.0000
  C   C878      1.0  0.6694081016967937  0.3400367449946129  0.4253224514317213  1.0000
  C   C879      1.0  0.6884488663832987  0.3587384038137815  0.42152782735502686  1.0000
  C   C880      1.0  0.6955849000738227  0.3744944706642085  0.4448335325806066  1.0000
  C   C881      1.0  0.6837049057417658  0.37182791598186893  0.4720561256932019  1.0000
  C   C882      1.0  0.6641903717199416  0.3533814368820895  0.475432829836435  1.0000
  C   C883      1.0  0.6603604489791897  0.29215299525700367  0.5016706435313527  1.0000
  C   C884      1.0  0.6800096735365239  0.2774432006273815  0.5138014364935797  1.0000
  C   C885      1.0  0.6951899228857813  0.26123675011355446  0.49602872442962415  1.0000
  C   C886      1.0  0.6910700834191695  0.2612546338023549  0.4659407121987752  1.0000
  C   C887      1.0  0.6719062028480768  0.27678090570481456  0.4529496266075611  1.0000
  C   C888      1.0  0.6560257247476284  0.2924861989845856  0.4708846160924884  1.0000
  H   H673      1.0  0.5819641507120965  0.27791344426280223  0.2794261580646837  1.0000
  H   H674      1.0  0.5536707015339503  0.2610625877833523  0.3664579842080137  1.0000
  H   H675      1.0  0.5371404455726181  0.21959042449165173  0.3486630423603634  1.0000
  H   H676      1.0  0.5686508930041317  0.23494409858339163  0.2632139768160999  1.0000
  H   H677      1.0  0.5408499395720209  0.31459015713363775  0.3668003228769129  1.0000
  H   H678      1.0  0.5056516251511453  0.3432014608061238  0.35049922249355  1.0000
  H   H679      1.0  0.5426749950289289  0.35193338847841  0.26615053124217686  1.0000
  H   H680      1.0  0.5787530062586661  0.3259725399424159  0.28326079575202867  1.0000
  H   H681      1.0  0.6036045370582322  0.2580839484260647  0.37863768269436926  1.0000
  H   H682      1.0  0.6260207679616248  0.2650486880659234  0.42653175166471585  1.0000
  H   H683      1.0  0.6106964399598181  0.3473502528764473  0.42078757555799157  1.0000
  H   H684      1.0  0.5888268722918496  0.3409423890622488  0.372833486171669  1.0000
  H   H685      1.0  0.5678651344847129  0.28552364830187793  0.5153953119844935  1.0000
  H   H686      1.0  0.604682636434186  0.27803633531303407  0.4838045663758791  1.0000
  H   H687      1.0  0.6126454546942005  0.36061914667574735  0.4707134467580387  1.0000
  H   H688      1.0  0.5738827647362252  0.3682706724580922  0.5033689990056317  1.0000
  H   H689      1.0  0.6643809342749868  0.32751444002001767  0.40646937188020077  1.0000
  H   H690      1.0  0.6982377971760566  0.3611426520226592  0.40094304765368505  1.0000
  H   H691      1.0  0.6898211944160839  0.3844605343012306  0.4898243918004184  1.0000
  H   H692      1.0  0.6558993581078719  0.3509747181907751  0.4968956859937196  1.0000
  H   H693      1.0  0.6489268912537451  0.30500961007563326  0.516117779954573  1.0000
  H   H694      1.0  0.6832023718177972  0.2768852269911867  0.5376740012033757  1.0000
  H   H695      1.0  0.7028681779238081  0.24859549087792726  0.45197373910336147  1.0000
  H   H696      1.0  0.6693537640040507  0.27699384309029007  0.4287502840774523  1.0000
  C   C889      1.0  0.5092977367571195  0.12296138894542225  0.02911990515094252  1.0000
  C   C890      1.0  0.5135954867584048  0.10516421676046964  0.05175338171759289  1.0000
  C   C891      1.0  0.5163623310680631  0.11428381914751033  0.08050093799164827  1.0000
  C   C892      1.0  0.518039250825001  0.14104070136687832  0.08679841341453505  1.0000
  C   C893      1.0  0.5160460869193525  0.15826410992386936  0.06304633413236467  1.0000
  C   C894      1.0  0.5121769083667334  0.14932943746604072  0.034403257841674625  1.0000
  H   H697      1.0  0.5121438653665474  0.08435260353607278  0.04836044983226263  1.0000
  H   H698      1.0  0.5147116937354593  0.10077174936149705  0.09888874817043763  1.0000
  H   H699      1.0  0.5149239226099389  0.17894776196912746  0.06715617654185073  1.0000
  H   H700      1.0  0.5084389159661423  0.1634203283686742  0.016361120799338675  1.0000
  C   C895      1.0  0.9667781492269745  0.14217342426380497  0.12362004942436189  1.0000
  C   C896      1.0  0.9860700636239734  0.1613574161221379  0.12050209996333577  1.0000
  C   C897      1.0  0.9776059447273738  0.18644235154317382  0.11274168247549728  1.0000
  C   C898      1.0  0.9519358212409906  0.19110732847412878  0.10447353672807058  1.0000
  C   C899      1.0  0.933959619909809  0.17069241537250446  0.10208561336358019  1.0000
  C   C900      1.0  0.9419552550177615  0.14652611027190274  0.1133563359946572  1.0000
  C   C901      1.0  0.5167105519150497  0.1523967733300526  0.12014353355233941  1.0000
  C   C902      1.0  0.5358257185124459  0.17696128900772867  0.12632252422813312  1.0000
  C   C903      1.0  0.5324858098279035  0.19333062299904774  0.15094556643546392  1.0000
  C   C904      1.0  0.5491243996644415  0.21412250538094327  0.15605130315447494  1.0000
  C   C905      1.0  0.5691945328572543  0.21882169486502856  0.1373022589906458  1.0000
  C   C906      1.0  0.5735069375512052  0.20195648638618066  0.11428398486823926  1.0000
  C   C907      1.0  0.5577463754763795  0.18065869956471267  0.10918847384972784  1.0000
  C   C908      1.0  0.5142082856446267  0.12773049912236348  0.17117755946957006  1.0000
  C   C909      1.0  0.5250178843418234  0.11215891222312374  0.19353538671840548  1.0000
  C   C910      1.0  0.5505514531864548  0.10221022889132224  0.1912052607915214  1.0000
  C   C911      1.0  0.5636531392428261  0.10743728878838836  0.16522798016150617  1.0000
  C   C912      1.0  0.552109502994888  0.1215929491994012  0.1427114322570902  1.0000
  C   C913      1.0  0.5271916422564188  0.13268143445202588  0.14486438680792713  1.0000
  C   C914      1.0  0.5656235124454924  0.0883886666780914  0.21935038992744893  1.0000
  C   C915      1.0  0.5692137266960058  0.1562790279204092  0.27981295630097247  1.0000
  C   C916      1.0  0.5504247389620343  0.13751986470267394  0.2837542969500523  1.0000
  C   C917      1.0  0.5478005864805273  0.11717737728235318  0.2637297077978182  1.0000
  C   C918      1.0  0.566581540515753  0.11293730785918261  0.24177335044250997  1.0000
  C   C919      1.0  0.5854989735879205  0.13265328976833218  0.23754302260539842  1.0000
  C   C920      1.0  0.5860348353362067  0.15403548606210457  0.2563538655678989  1.0000
  C   C921      1.0  0.5942505432724051  0.07561219089475081  0.21467279884239893  1.0000
  C   C922      1.0  0.5967135024592456  0.05974583639553145  0.1897983377814804  1.0000
  C   C923      1.0  0.6185334347838567  0.04459965191036521  0.1851692076248849  1.0000
  C   C924      1.0  0.6385985029212284  0.04449181672389553  0.205905816748862  1.0000
  C   C925      1.0  0.6375453727777093  0.06138110559539353  0.22967145619908613  1.0000
  C   C926      1.0  0.6152432515958849  0.07665955287772398  0.23402404784651887  1.0000
  C   C927      1.0  0.5559967380889442  0.05499991894875365  0.2612710937211784  1.0000
  C   C928      1.0  0.5424211888771792  0.03510311710104766  0.2740198746701197  1.0000
  C   C929      1.0  0.5229591894679473  0.022782871484956765  0.2579166193616401  1.0000
  C   C930      1.0  0.5185411414159425  0.030036067961893585  0.22857330488456526  1.0000
  C   C931      1.0  0.5316217455416974  0.05049696810310325  0.2167461707676086  1.0000
  C   C932      1.0  0.5503401225582731  0.06415001827920858  0.23322155265513828  1.0000
  H   H701      1.0  0.9715187238800861  0.1223549281228554  0.12961164302360884  1.0000
  H   H702      1.0  0.9921165649987708  0.2017178531367462  0.10936942428900313  1.0000
  H   H703      1.0  0.947055828466549  0.21035004087347475  0.09554516640490976  1.0000
  H   H704      1.0  0.9289208278987962  0.12986577859549517  0.11322740324922764  1.0000
  H   H705      1.0  0.5156994219977532  0.19088587514762034  0.16480472507995805  1.0000
  H   H706      1.0  0.5458364968736594  0.22631122889529393  0.17548013410368962  1.0000
  H   H707      1.0  0.5911652142616479  0.20279063386346463  0.10135002982112078  1.0000
  H   H708      1.0  0.5631157706443968  0.16864144046467927  0.09005685510851202  1.0000
  H   H709      1.0  0.9951919413687971  0.13620729738915008  0.1760967883033821  1.0000
  H   H710      1.0  0.5137035195833086  0.10889878758827835  0.21395499912689533  1.0000
  H   H711      1.0  0.5843296839029708  0.10198954841041086  0.16329710114977986  1.0000
  H   H712      1.0  0.5637551743805426  0.1251419939239802  0.12301762228623409  1.0000
  H   H713      1.0  0.5364854496246051  0.1383600246433584  0.30170929324030477  1.0000
  H   H714      1.0  0.5320261552507594  0.10320911035314781  0.2676532646199422  1.0000
  H   H715      1.0  0.5998575878188234  0.13115405075776862  0.21998260497572772  1.0000
  H   H716      1.0  0.6009840710030554  0.16859555410575774  0.2522591394113253  1.0000
  H   H717      1.0  0.5800936012339769  0.05686799709382302  0.17438487266104907  1.0000
  H   H718      1.0  0.618902610970686  0.03077767063167019  0.1670325940018463  1.0000
  H   H719      1.0  0.652911391530109  0.061935034955594895  0.24637936162406293  1.0000
  H   H720      1.0  0.614409242112407  0.08815236729051158  0.25488003090893674  1.0000
  H   H721      1.0  0.5702260193749661  0.06442824139781061  0.2746445315919422  1.0000
  H   H722      1.0  0.5465237401985626  0.027826967359168214  0.29607626605205417  1.0000
  H   H723      1.0  0.5036822982957531  0.02041506886791496  0.21495422790397448  1.0000
  H   H724      1.0  0.5270268936801332  0.05509187018462727  0.19393752350544355  1.0000
  C   C933      1.0  0.8199412983231165  0.21025127668974244  0.7846646818790444  1.0000
  C   C934      1.0  0.8464875248977347  0.20651004478880874  0.7822838720453363  1.0000
  C   C935      1.0  0.8615001934264437  0.20182993427095142  0.8073857437934521  1.0000
  C   C936      1.0  0.8508817555315018  0.20098954073256553  0.8357976303337168  1.0000
  C   C937      1.0  0.8235979628288447  0.20412185427524057  0.837062505025948  1.0000
  C   C938      1.0  0.8083874397205304  0.2077730403556482  0.8120495524126115  1.0000
  H   H725      1.0  0.8560289917897153  0.20874723347264518  0.761416774091071  1.0000
  H   H726      1.0  0.8828429227069474  0.2028761256205551  0.8056607125787393  1.0000
  H   H727      1.0  0.813303990105793  0.20570574212695922  0.8580096302015144  1.0000
  H   H728      1.0  0.7872343691588284  0.21202124929453658  0.8137390159734127  1.0000
  C   C939      1.0  0.85701364794681  0.2563992668223612  0.8595857218654726  1.0000
  C   C940      1.0  0.8765725298426985  0.23707480150745897  0.8582341510168315  1.0000
  C   C941      1.0  0.9000537003588988  0.2438844876826348  0.8451541462908383  1.0000
  C   C942      1.0  0.9037533512822258  0.26837069676553865  0.8338480783036866  1.0000
  C   C943      1.0  0.8827576978132906  0.2860701062075588  0.8313983561405249  1.0000
  C   C944      1.0  0.8600956461833701  0.28045979215736216  0.8460344457251507  1.0000
  C   C945      1.0  0.8699182391936606  0.20648667911292065  0.8646830112666796  1.0000
  C   C946      1.0  0.8959326009780986  0.188532430795091  0.8679885801020892  1.0000
  C   C947      1.0  0.9169782447862902  0.194345572142532  0.8873151540463082  1.0000
  C   C948      1.0  0.9397428343454431  0.17889722440686417  0.8881821156104036  1.0000
  C   C949      1.0  0.9417242598724395  0.1576566865318039  0.8696246921820231  1.0000
  C   C950      1.0  0.9213528728792222  0.15073029556829434  0.8509472279216912  1.0000
  C   C951      1.0  0.8984762196305609  0.16562911225379842  0.8511028364075546  1.0000
  C   C952      1.0  0.8535344477500355  0.21818610309853023  0.9174009432987876  1.0000
  C   C953      1.0  0.840812879180456  0.2124441152917927  0.9432541817357863  1.0000
  C   C954      1.0  0.8307239197380561  0.18784227567446796  0.9486226744980693  1.0000
  C   C955      1.0  0.8338493701359596  0.16952359746712845  0.9260461061776775  1.0000
  C   C956      1.0  0.8454908042559762  0.17516747603882457  0.8997104814345028  1.0000
  C   C957      1.0  0.8557674885275235  0.1999144145881619  0.8950177740965402  1.0000
  C   C958      1.0  0.8174039658637632  0.17920846583501399  0.9794509385259534  1.0000
  C   C959      1.0  0.8902802684541058  0.16863349366811425  0.03016826174998711  1.0000
  C   C960      1.0  0.8783722382705462  0.19309763252387888  0.028764006313989524  1.0000
  C   C961      1.0  0.855219333050513  0.19558324805742092  0.014044821797912737  1.0000
  C   C962      1.0  0.8436726454341339  0.17492274913959896  0.9988486477779954  1.0000
  C   C963      1.0  0.85636343635853  0.15120122993653703  0.9993999464136256  1.0000
  C   C964      1.0  0.879656407625573  0.14815133676615397  0.01471193760659229  1.0000
  C   C965      1.0  0.7970188228182183  0.15521669413397982  0.9779459821698189  1.0000
  C   C966      1.0  0.778314606687266  0.15271948685734993  0.9558918137662537  1.0000
  C   C967      1.0  0.7589335765722135  0.13392303444899006  0.9562319294567835  1.0000
  C   C968      1.0  0.7582817159119665  0.11646210681232952  0.9793175598237851  1.0000
  C   C969      1.0  0.7765143992943614  0.11846270861555662  0.00223868979144548  1.0000
  C   C970      1.0  0.7957927350676941  0.1373706723046124  0.0018207698579841833  1.0000
  C   C971      1.0  0.7946219794266236  0.20166696407242474  0.02416644245024057  1.0000
  C   C972      1.0  0.7792454512621293  0.22066672225989184  0.03637881871862738  1.0000
  C   C973      1.0  0.766965130485985  0.23923304934882428  0.018278661940848123  1.0000
  C   C974      1.0  0.7688647870898395  0.23751163652752227  0.9877848844331168  1.0000
  C   C975      1.0  0.7843230756497905  0.21821809257826202  0.9757185578436044  1.0000
  C   C976      1.0  0.7985672588564141  0.20065687444494554  0.9934512562969093  1.0000
  H   H729      1.0  0.8390537609486467  0.25231534792909605  0.8700226053101593  1.0000
  H   H730      1.0  0.9150130504187034  0.2292978571359096  0.8403925266234221  1.0000
  H   H731      1.0  0.9224999657546746  0.2714315966044894  0.822490881814037  1.0000
  H   H732      1.0  0.8441571922793919  0.295373587656261  0.8455787351594083  1.0000
  H   H733      1.0  0.914718614894733  0.21078896184816565  0.9026959413847083  1.0000
  H   H734      1.0  0.9548808901804003  0.18398489911567165  0.9036851667591247  1.0000
  H   H735      1.0  0.9224924250286998  0.1334759870036868  0.8370358292855142  1.0000
  H   H736      1.0  0.8826908100946242  0.15865613509421603  0.8357976303337168  1.0000
  H   H737      1.0  0.8635488216350601  0.23680879911041744  0.915629229538316  1.0000
  H   H738      1.0  0.8411842770741623  0.22712883076143367  0.9608890691408343  1.0000
  H   H739      1.0  0.8276708723467299  0.1492250229230076  0.928671443632028  1.0000
  H   H740      1.0  0.8463074569022631  0.16142309969750523  0.8826691292541048  1.0000
  H   H741      1.0  0.8878416279145799  0.21030150793430605  0.038545555735355015  1.0000
  H   H742      1.0  0.8465964829846355  0.21520722773426737  0.012038005845085157  1.0000
  H   H743      1.0  0.848085339216955  0.135654194191544  0.985584135847336  1.0000
  H   H744      1.0  0.8890644191533127  0.12895414084967097  0.015278374724918312  1.0000
  H   H745      1.0  0.7766414784724689  0.16696651854794425  0.9379679391731738  1.0000
  H   H746      1.0  0.7443867446018124  0.1333688328791575  0.9392039151466022  1.0000
  H   H747      1.0  0.7750355060138597  0.10525033478408385  0.020932075612005004  1.0000
  H   H748      1.0  0.8079944938572441  0.13894079636357842  0.021031909570578138  1.0000
  H   H749      1.0  0.8052111892411496  0.1879727634769444  0.03904528127281308  1.0000
  H   H750      1.0  0.7768256002821061  0.22177898689716383  0.06047434815888168  1.0000
  H   H751      1.0  0.758073281810469  0.25138763468724296  0.9736200662628198  1.0000
  H   H752      1.0  0.7855767853338639  0.21668715747193934  0.951661485929142  1.0000
  C   C977      1.0  0.535896256143139  0.07742601360081525  0.9787351394909825  1.0000
  C   C978      1.0  0.5572264037180206  0.0941363616557669  0.9805290830351491  1.0000
  C   C979      1.0  0.582007017283006  0.08536816206170311  0.9729487267952383  1.0000
  C   C980      1.0  0.5860212226943483  0.05950253164855014  0.9637078057133291  1.0000
  C   C981      1.0  0.5645124863987403  0.04299596174754699  0.9628919726517314  1.0000
  C   C982      1.0  0.5403327253437002  0.05205791398175572  0.969665387743523  1.0000
  H   H753      1.0  0.5547315430946801  0.11461925552679098  0.987037963700973  1.0000
  H   H754      1.0  0.5980985614658879  0.09892542350289155  0.97306876762719  1.0000
  H   H755      1.0  0.5655100451088589  0.02259846820155413  0.9555339142487682  1.0000
  H   H756      1.0  0.5233922261301859  0.03895806506151658  0.9678558833507701  1.0000
  C   C983      1.0  0.6145225773951781  0.013789454970361647  0.9923575509391275  1.0000
  C   C984      1.0  0.6223732954337127  0.021676739790754438  0.9642057528680914  1.0000
  C   C985      1.0  0.640874793034771  0.005941450084747549  0.949691927093787  1.0000
  C   C986      1.0  0.6499914869658753  0.4827703052272857  0.9624273701725111  1.0000
  C   C987      1.0  0.6420299972899662  0.47556448739499513  0.990808135015603  1.0000
  C   C988      1.0  0.62382060320669  0.4909002628351638  0.004706195781563061  1.0000
  C   C989      1.0  0.6141079059382311  0.04961828635210017  0.9515992425347967  1.0000
  C   C990      1.0  0.6395042002618239  0.06538212353078783  0.961420360971139  1.0000
  C   C991      1.0  0.659372095973327  0.0694472729734517  0.9414469003214029  1.0000
  C   C992      1.0  0.6805958570381654  0.0841254578455881  0.9492917909872814  1.0000
  C   C993      1.0  0.6837769741789913  0.09375079396232833  0.9777347992247185  1.0000
  C   C994      1.0  0.6655130027864908  0.0875019816252317  0.9988975533021239  1.0000
  C   C995      1.0  0.6435559881812267  0.07319378867242178  0.9905925061137643  1.0000
  C   C996      1.0  0.5979508204393605  0.0292650623331363  0.8999372252281894  1.0000
  C   C997      1.0  0.5890423944199851  0.032831960775968984  0.8711274255597886  1.0000
  C   C998      1.0  0.5862019693161294  0.05807580919332745  0.8596724180218821  1.0000
  C   C999      1.0  0.5969236396866227  0.07861885868227965  0.8753910980724423  1.0000
  C   C1000     1.0  0.6072675969832013  0.0748318898149529  0.9032494629987076  1.0000
  C   C1001     1.0  0.6068087503907221  0.05058051465596104  0.9161960890225321  1.0000
  C   C1002     1.0  0.5683818109924457  0.06429782894518689  0.8307492464566382  1.0000
  C   C1003     1.0  0.6303491155468368  0.07372317100763376  0.764666768467244  1.0000
  C   C1004     1.0  0.6202175805588754  0.04938938339679615  0.7708799930099276  1.0000
  C   C1005     1.0  0.601033866903176  0.04696085832563821  0.792373970864385  1.0000
  C   C1006     1.0  0.5913643001449544  0.06842777487139652  0.8074124195338858  1.0000
  C   C1007     1.0  0.6034713451543494  0.0924351687034686  0.8023462518298514  1.0000
  C   C1008     1.0  0.6217488053932947  0.09523801405280288  0.7807389020785507  1.0000
  C   C1009     1.0  0.5489570015065898  0.08926869992194295  0.8370736199177956  1.0000
  C   C1010     1.0  0.5381928181691862  0.09440185211353212  0.865134275875683  1.0000
  C   C1011     1.0  0.5192251891877698  0.11308322207445803  0.868230884744362  1.0000
  C   C1012     1.0  0.510033424650716  0.1277361436526404  0.8444116715154337  1.0000
  C   C1013     1.0  0.5213071505214322  0.12401968227035237  0.8175069643096734  1.0000
  C   C1014     1.0  0.5398896028577651  0.10490424748895702  0.8131477037271322  1.0000
  C   C1015     1.0  0.5377830296609966  0.03979306851313932  0.7930742090507698  1.0000
  C   C1016     1.0  0.5188354072465924  0.022256947706385394  0.7850159124614214  1.0000
  C   C1017     1.0  0.50619916078694  0.007412937562918232  0.8057807534106907  1.0000
  C   C1018     1.0  0.5135344643308053  0.011724025851888602  0.8353552576381912  1.0000
  C   C1019     1.0  0.5323575309503851  0.030165540328505738  0.8438270282042617  1.0000
  C   C1020     1.0  0.5465149838775001  0.04313988867899944  0.8220840767724232  1.0000
  H   H757      1.0  0.6026465146551941  0.02667989756796417  0.00620892915932858  1.0000
  H   H758      1.0  0.6486741533818636  0.011311263390709798  0.9283668955954099  1.0000
  H   H759      1.0  0.6648458963361091  0.4714183674724277  0.951814871436636  1.0000
  H   H760      1.0  0.6169359927347028  0.48491438364003997  0.02702341425069031  1.0000
  H   H761      1.0  0.6578689233559771  0.061971283906679976  0.9190570621840469  1.0000
  H   H762      1.0  0.6945283463020361  0.08972428003577614  0.9322882294391641  1.0000
  H   H763      1.0  0.6681086820422568  0.09359055987341121  0.022153713374950187  1.0000
  H   H764      1.0  0.6303600411617137  0.06788744520998653  0.008774246197703171  1.0000
  H   H765      1.0  0.5978851044544782  0.00890323488636573  0.9086268476744686  1.0000
  H   H766      1.0  0.5826911149799125  0.015617189567011174  0.8588588079386541  1.0000
  H   H767      1.0  0.5956678180219426  0.09808484527980259  0.8658189532134815  1.0000
  H   H768      1.0  0.6144610800292487  0.09178896704724122  0.9148756398710638  1.0000
  H   H769      1.0  0.6275121494315008  0.03228611621687043  0.7581000903638138  1.0000
  H   H770      1.0  0.593333931598599  0.02761662202369342  0.7966398663554081  1.0000
  H   H771      1.0  0.5960352978806419  0.10996340330824905  0.8129231829118152  1.0000
  H   H772      1.0  0.627747997724859  0.11500822377066035  0.7758305658387493  1.0000
  H   H773      1.0  0.5424633333203747  0.08196022326399177  0.8840429298864405  1.0000
  H   H774      1.0  0.5118707025420176  0.11662099819772156  0.8903939790880314  1.0000
  H   H775      1.0  0.5141238003398242  0.13470817173801614  0.7980425657065472  1.0000
  H   H776      1.0  0.54575490803434  0.10089964988538208  0.7904844392503309  1.0000
  H   H777      1.0  0.5462312167352421  0.051044097923809074  0.7757416467039702  1.0000
  H   H778      1.0  0.5127491096676801  0.020831899316487264  0.7619013833756166  1.0000
  H   H779      1.0  0.5034391179492441  0.0011462129730828296  0.8525322114991273  1.0000
  H   H780      1.0  0.5361886266718876  0.03406440846705191  0.8675350925147164  1.0000
  C   C1021     1.0  0.7785576705799545  0.18072254532847598  0.7345209587987886  1.0000
  C   C1022     1.0  0.8012814036343974  0.1658949389687213  0.7303728811613475  1.0000
  C   C1023     1.0  0.7992042378214012  0.14111777705542547  0.7184532711442208  1.0000
  C   C1024     1.0  0.7745987087962379  0.13162805352034265  0.7089544845714524  1.0000
  C   C1025     1.0  0.7533562327621435  0.14862793059979426  0.7109262663851771  1.0000
  C   C1026     1.0  0.7549449012388588  0.1719216424931425  0.7247554148216833  1.0000
  H   H781      1.0  0.8204838117214561  0.17252054982474432  0.737230769431179  1.0000
  H   H782      1.0  0.8160191356179068  0.12924586006738986  0.7158190417763923  1.0000
  H   H783      1.0  0.7336374493837554  0.14345207903320686  0.7018809673997817  1.0000
  H   H784      1.0  0.7375937443480056  0.18454695795657433  0.7269161497968134  1.0000
  C   C1027     1.0  0.7358639507344178  0.09308762466010624  0.7320601217437792  1.0000
  C   C1028     1.0  0.7441403491538641  0.08943080222411154  0.7026901315262708  1.0000
  C   C1029     1.0  0.7284059727502669  0.07418943089511176  0.6841171472493041  1.0000
  C   C1030     1.0  0.7052438111292701  0.06388613968395011  0.6938849142047789  1.0000
  C   C1031     1.0  0.6970877069820062  0.06866972808606678  0.7226769300462237  1.0000
  C   C1032     1.0  0.7127883322736267  0.08252727303870692  0.7423702954214061  1.0000
  C   C1033     1.0  0.7705695832113254  0.10307435979065152  0.6932647032396954  1.0000
  C   C1034     1.0  0.7905892397085188  0.08060881310718984  0.7038794249539402  1.0000
  C   C1035     1.0  0.7978166662142702  0.06162298264989517  0.6829589755188076  1.0000
  C   C1036     1.0  0.8145497892830355  0.040968526914511236  0.6911350899617378  1.0000
  C   C1037     1.0  0.8233599663978595  0.03769991673840334  0.7197381526417773  1.0000
  C   C1038     1.0  0.8158026940711391  0.05645910133172084  0.7405963586825648  1.0000
  C   C1039     1.0  0.7992310785206026  0.07710787261054823  0.7326825556872323  1.0000
  C   C1040     1.0  0.7544572189510365  0.11875924208043892  0.6408668800927916  1.0000
  C   C1041     1.0  0.7587289288024702  0.13157176113316685  0.6145490391765726  1.0000
  C   C1042     1.0  0.7838327935177346  0.1381784565866154  0.6061617417885422  1.0000
  C   C1043     1.0  0.8045541037434932  0.13112842165017444  0.6247325030871392  1.0000
  C   C1044     1.0  0.8006014545801964  0.11805507286674762  0.6511370401597676  1.0000
  C   C1045     1.0  0.7753959676444159  0.11256049160169464  0.6600422915078861  1.0000
  C   C1046     1.0  0.7902669349970027  0.15378751523495546  0.5757069381267297  1.0000
  C   C1047     1.0  0.8118762298070602  0.08432869535479648  0.5230112358783162  1.0000
  C   C1048     1.0  0.7856089704110837  0.09058939743313267  0.5278062002212744  1.0000
  C   C1049     1.0  0.7792361581387675  0.11273868952856726  0.5432492309540199  1.0000
  C   C1050     1.0  0.7983379057086568  0.1287105652898373  0.5558335115036198  1.0000
  C   C1051     1.0  0.8246901883533153  0.12096474427169712  0.5526746592405954  1.0000
  C   C1052     1.0  0.831154844517202  0.09887454017199396  0.5365336132998348  1.0000
  C   C1053     1.0  0.8110179425487981  0.17695705196190248  0.5811265593915105  1.0000
  C   C1054     1.0  0.8097638915468662  0.1931633286686461  0.6064840736521161  1.0000
  C   C1055     1.0  0.8260919466696316  0.2143017090393734  0.6101297581780557  1.0000
  C   C1056     1.0  0.8441348668531865  0.22062529243064583  0.588489063751213  1.0000
  C   C1057     1.0  0.8453602110050666  0.2046689605221114  0.5634916719864626  1.0000
  C   C1058     1.0  0.8277244586436224  0.1844750521091196  0.5590301543989254  1.0000
  C   C1059     1.0  0.7667967833649997  0.1729694217745414  0.5292466902046946  1.0000
  C   C1060     1.0  0.7474374487816553  0.1877810392808342  0.5153797511359073  1.0000
  C   C1061     1.0  0.7290572286433643  0.2011346831564306  0.5313763034826519  1.0000
  C   C1062     1.0  0.7304814760553765  0.20007195860313123  0.5620267292409783  1.0000
  C   C1063     1.0  0.7491912098474622  0.18501328105998086  0.5764671967290903  1.0000
  C   C1064     1.0  0.7676015611103137  0.17028066154133678  0.5600127108382336  1.0000
  H   H785      1.0  0.7471031607490326  0.10561572916529198  0.7473675507959867  1.0000
  H   H786      1.0  0.7345299568986405  0.06943591096435878  0.6620607558673696  1.0000
  H   H787      1.0  0.6949323566667918  0.05216098406512972  0.6772414751525168  1.0000
  H   H788      1.0  0.7070582824516907  0.08539744626729882  0.7644689233923607  1.0000
  H   H789      1.0  0.7917836621363656  0.06232233020220711  0.6599200276975649  1.0000
  H   H790      1.0  0.821562462549559  0.028105111698067873  0.6731534179310518  1.0000
  H   H791      1.0  0.8227765043748305  0.05563450957628058  0.7627839057882982  1.0000
  H   H792      1.0  0.7942856305743254  0.0910152850014445  0.7498372797644739  1.0000
  H   H793      1.0  0.734213471987749  0.11590547140523111  0.6466755225722305  1.0000
  H   H794      1.0  0.7418037382835007  0.13681973919767332  0.6004108967467093  1.0000
  H   H795      1.0  0.8244389128098155  0.13599598370660498  0.6195485175295227  1.0000
  H   H796      1.0  0.8176807778626285  0.11405484292042767  0.6651684796278962  1.0000
  H   H797      1.0  0.769913197308689  0.07861313693659978  0.519241064563686  1.0000
  H   H798      1.0  0.7595236415161698  0.11863908708974485  0.5466992933834457  1.0000
  H   H799      1.0  0.8402169382518726  0.13280691892259713  0.5639140378766628  1.0000
  H   H800      1.0  0.8511715413296794  0.09329944663235956  0.5336170656790832  1.0000
  H   H801      1.0  0.795728571785316  0.19061609351759193  0.624118961057164  1.0000
  H   H802      1.0  0.8242228641116011  0.22698309441081477  0.6297475422886758  1.0000
  H   H803      1.0  0.8583906566005218  0.21114069238298463  0.5458612305381533  1.0000
  H   H804      1.0  0.8280310159451685  0.17375720726241195  0.5378607313864116  1.0000
  H   H805      1.0  0.7817116635719488  0.16315526356164908  0.5156709613023085  1.0000
  H   H806      1.0  0.7458316544876282  0.18777137683568715  0.4912426520001437  1.0000
  H   H807      1.0  0.7166439492534092  0.2116700740544166  0.5749533484594775  1.0000
  H   H808      1.0  0.750871049053521  0.18609112664814717  0.6007021069131105  1.0000
  C   C1065     1.0  0.9142443315744612  0.4248347206775356  0.46105460574266827  1.0000
  C   C1066     1.0  0.895659023229389  0.4057331961027381  0.4546079684711897  1.0000
  C   C1067     1.0  0.8713142513535785  0.41293346558838356  0.4428862035289462  1.0000
  C   C1068     1.0  0.8649126240659748  0.43942603482065945  0.43789561708947394  1.0000
  C   C1069     1.0  0.8841376294071158  0.45753571587904446  0.44431557862051885  1.0000
  C   C1070     1.0  0.9078271811472486  0.45097640760525626  0.45625964139970987  1.0000
  H   H809      1.0  0.9003905766114636  0.3853833479564243  0.45826032193223776  1.0000
  H   H810      1.0  0.8571294531430608  0.3978516094406752  0.4372842980378682  1.0000
  H   H811      1.0  0.880362795692315  0.47858787305373135  0.44091219873685195  1.0000
  H   H812      1.0  0.9210737401130836  0.466675321727358  0.461030152980604  1.0000
  C   C1071     1.0  0.8281917839975587  0.47915264113855904  0.46795250762315027  1.0000
  C   C1072     1.0  0.827362194437714  0.4763079919459347  0.4368797159746237  1.0000
  C   C1073     1.0  0.8164864082369013  0.4970534476034088  0.42030296627344593  1.0000
  C   C1074     1.0  0.8125205238369103  0.021298592532677324  0.43322958549194523  1.0000
  C   C1075     1.0  0.814801128381985  0.02467495166341911  0.4638666733800546  1.0000
  C   C1076     1.0  0.8220951014797618  0.0028020462037132974  0.4810102825654487  1.0000
  C   C1077     1.0  0.8381465901670333  0.449328654508475  0.4215967396844806  1.0000
  C   C1078     1.0  0.812552074441486  0.43096917069684176  0.42499122765466946  1.0000
  C   C1079     1.0  0.7924787669618435  0.4302922515566596  0.40308599880185925  1.0000
  C   C1080     1.0  0.7705644206596305  0.41490851021431824  0.4071162585857181  1.0000
  C   C1081     1.0  0.7676564429990946  0.4015683657293556  0.43294504426065233  1.0000
  C   C1082     1.0  0.7864483018205456  0.40357387541809425  0.4546035225144508  1.0000
  C   C1083     1.0  0.8080713579675572  0.4182529422493759  0.45122904134958725  1.0000
  C   C1084     1.0  0.8606816991069237  0.47161491398723104  0.37637469071424323  1.0000
  C   C1085     1.0  0.8735698348807827  0.46978671432016494  0.34957224051347885  1.0000
  C   C1086     1.0  0.8767970442921402  0.4458734114617303  0.33527848959775225  1.0000
  C   C1087     1.0  0.8625479572841138  0.42465496539799763  0.34562200795092113  1.0000
  C   C1088     1.0  0.8489756542577801  0.4265448522102118  0.3720354369370274  1.0000
  C   C1089     1.0  0.8479808156650399  0.4496485864382325  0.3879408471706236  1.0000
  C   C1090     1.0  0.8942647035290152  0.44300355805809766  0.3058329181156816  1.0000
  C   C1091     1.0  0.8380777262380559  0.4571868318436728  0.23321488372002983  1.0000
  C   C1092     1.0  0.8460021781663448  0.47735745094246357  0.25178564501862705  1.0000
  C   C1093     1.0  0.8619775295844252  0.47250834523361673  0.27561152718266396  1.0000
  C   C1094     1.0  0.8715836965289505  0.4473226672394209  0.2818692112927372  1.0000
  C   C1095     1.0  0.8630222402664836  0.42689874966675934  0.2641943102770385  1.0000
  C   C1096     1.0  0.8465613719985103  0.4315802096019614  0.23993717030932338  1.0000
  C   C1097     1.0  0.9123337030258777  0.41688563479810425  0.30261182245831175  1.0000
  C   C1098     1.0  0.921223340653975  0.4030057277411204  0.3278292890816402  1.0000
  C   C1099     1.0  0.938402807825299  0.38207924247510355  0.3255173915773859  1.0000
  C   C1100     1.0  0.9489613607584821  0.3757027622706863  0.2985860086311919  1.0000
  C   C1101     1.0  0.9415596547285412  0.38926538054357857  0.27356638708274666  1.0000
  C   C1102     1.0  0.9234066083349407  0.40972298084915076  0.27570711525255137  1.0000
  C   C1103     1.0  0.9241903596611167  0.4734768455112314  0.2747267817916128  1.0000
  C   C1104     1.0  0.9450400438129155  0.48959729440049193  0.2711522325734964  1.0000
  C   C1105     1.0  0.9609299178704126  0.49535796126307574  0.29521597342306727  1.0000
  C   C1106     1.0  0.9551743595798639  0.48525129780181714  0.3229165068850997  1.0000
  C   C1107     1.0  0.9337190226117593  0.4699501543492161  0.3268511785990711  1.0000
  C   C1108     1.0  0.9171574313701951  0.46391281952402663  0.3027652079658056  1.0000
  H   H813      1.0  0.8357961961452577  0.4630192834645937  0.481297046775111  1.0000
  H   H814      1.0  0.8137284005868121  0.4943227980551601  0.3966104628115775  1.0000
  H   H815      1.0  0.8056760274212219  0.03794270291850214  0.4193448625962021  1.0000
  H   H816      1.0  0.8243586524574312  0.00412401728776298  0.5047472455947066  1.0000
  H   H817      1.0  0.792944202632713  0.4418433777063898  0.3829947202985409  1.0000
  H   H818      1.0  0.7552738326118297  0.41357164581869066  0.3902038391507495  1.0000
  H   H819      1.0  0.7851128310158877  0.3942830225256676  0.47625533183314084  1.0000
  H   H820      1.0  0.822377099681768  0.4198105323576569  0.46900842234865114  1.0000
  H   H821      1.0  0.8598048836205975  0.49008718375452176  0.38758072467476856  1.0000
  H   H822      1.0  0.8829662368668315  0.48709758624124827  0.34126497034674935  1.0000
  H   H823      1.0  0.8629869050754123  0.4062744432252948  0.3336334856043405  1.0000
  H   H824      1.0  0.8406520712860671  0.4087299763235322  0.38128747291078385  1.0000
  H   H825      1.0  0.8386015264832226  0.49719972812000013  0.2466661258337253  1.0000
  H   H826      1.0  0.8682862354557044  0.48942210229663974  0.28837809195856096  1.0000
  H   H827      1.0  0.8701566145602709  0.40669863587179356  0.26824457686622266  1.0000
  H   H828      1.0  0.8411728005845646  0.4154635483929811  0.22590350786282537  1.0000
  H   H829      1.0  0.9160589354333968  0.4086445312864523  0.35004351192780764  1.0000
  H   H830      1.0  0.9436221613152993  0.37136747308811335  0.34554198072961995  1.0000
  H   H831      1.0  0.9507101160214867  0.3836268452592858  0.2529260329221679  1.0000
  H   H832      1.0  0.9185696419382274  0.42105724194759  0.2562316017575778  1.0000
  H   H833      1.0  0.9120328790915895  0.4686482297093139  0.2550734300270811  1.0000
  H   H834      1.0  0.9496406012928046  0.4979365240195056  0.2496538087623002  1.0000
  H   H835      1.0  0.965255527897161  0.4913526844020468  0.34319896152819296  1.0000
  H   H836      1.0  0.9300940139130749  0.4626329637868516  0.3490209418778489  1.0000
  C   C1109     1.0  0.7050165239350382  0.34620189724254563  0.2640542626397615  1.0000
  C   C1110     1.0  0.6852281734825298  0.3640931252394384  0.2581389171985876  1.0000
  C   C1111     1.0  0.6856705574941403  0.3795366306591341  0.23315486330405405  1.0000
  C   C1112     1.0  0.7070218464323991  0.3793283945032342  0.2143809217824868  1.0000
  C   C1113     1.0  0.7248203810618954  0.3584739228927998  0.21882065418200294  1.0000
  C   C1114     1.0  0.7239692698433375  0.34259343028716255  0.24320494851245217  1.0000
  H   H837      1.0  0.669075657051373  0.36782592535668024  0.2729328382474462  1.0000
  H   H838      1.0  0.6691794033003741  0.39305592820102553  0.2292513132872553  1.0000
  H   H839      1.0  0.7407019495383228  0.3565810608060982  0.20369706544095126  1.0000
  H   H840      1.0  0.7390236196088835  0.3272004897284138  0.2464038143861272  1.0000
  C   C1115     1.0  0.7564076905882676  0.4099943041973292  0.20962574875234205  1.0000
  C   C1116     1.0  0.7391050561941759  0.41057652093350006  0.1853875041007674  1.0000
  C   C1117     1.0  0.7481702402952712  0.42136398206664827  0.15899563800484506  1.0000
  C   C1118     1.0  0.7733064932965706  0.4314718625985358  0.1572014721628415  1.0000
  C   C1119     1.0  0.7898963484540403  0.4297680199120405  0.1815668711771501  1.0000
  C   C1120     1.0  0.7810657778524842  0.4196122518200656  0.2078340281865449  1.0000
  C   C1121     1.0  0.7098796136946303  0.4005905999686352  0.18905564070823871  1.0000
  C   C1122     1.0  0.6965686912768311  0.4285865055085051  0.19709526427928328  1.0000
  C   C1123     1.0  0.6824451031424  0.44234375592183917  0.17584959310869644  1.0000
  C   C1124     1.0  0.6677894620952822  0.46455564992218107  0.18300513818220066  1.0000
  C   C1125     1.0  0.6683384450678038  0.4739320840031789  0.21220618204362907  1.0000
  C   C1126     1.0  0.6837906018453512  0.4614579894195018  0.23320599180655194  1.0000
  C   C1127     1.0  0.6977737005007106  0.43900174260506347  0.22570566278794205  1.0000
  C   C1128     1.0  0.7121290737610506  0.37131617505663483  0.14078166473454867  1.0000
  C   C1129     1.0  0.7009222185900897  0.35944221704735246  0.11599678970192003  1.0000
  C   C1130     1.0  0.6740370428120489  0.35572831244348796  0.11353195128584577  1.0000
  C   C1131     1.0  0.6583704812796087  0.36949487738826425  0.13380129035655908  1.0000
  C   C1132     1.0  0.6693221684367359  0.38267595590728376  0.15740198481176815  1.0000
  C   C1133     1.0  0.69687633581983  0.38498005299012084  0.16106189639927243  1.0000
  C   C1134     1.0  0.6595255677295667  0.338779176100271  0.08776185223986566  1.0000
  C   C1135     1.0  0.6407194010530927  0.4034263195744098  0.026633948440358223  1.0000
  C   C1136     1.0  0.6655172114282634  0.3929509534375539  0.028922726969570062  1.0000
  C   C1137     1.0  0.6709352184446438  0.37239682296228077  0.04742946649112636  1.0000
  C   C1138     1.0  0.6520467120515431  0.36213382843643893  0.06502567407254553  1.0000
  C   C1139     1.0  0.6273954519558207  0.37372555930950874  0.06428453308416245  1.0000
  C   C1140     1.0  0.6218486487651925  0.39392627681569575  0.04482858179884018  1.0000
  C   C1141     1.0  0.6355294723387195  0.3220119408786581  0.09917039952985018  1.0000
  C   C1142     1.0  0.6362267060273816  0.31140817475312504  0.12756139007344175  1.0000
  C   C1143     1.0  0.6166589957485441  0.2951670508977316  0.1376188111104591  1.0000
  C   C1144     1.0  0.5974511212575678  0.28652490473504494  0.11779495690498867  1.0000
  C   C1145     1.0  0.597290685891164  0.29504898532273255  0.08855123185886637  1.0000
  C   C1146     1.0  0.6160554039918122  0.3128608384327318  0.07953505389011124  1.0000
  C   C1147     1.0  0.6752912083143625  0.309104869208343  0.04329583821308692  1.0000
  C   C1148     1.0  0.6893179187550219  0.28800584541750557  0.03228298107286901  1.0000
  C   C1149     1.0  0.7056562695751255  0.2736307962920675  0.05015661635479873  1.0000
  C   C1150     1.0  0.7078077033063224  0.279525600408783  0.08019194399829122  1.0000
  C   C1151     1.0  0.6934438180001755  0.2998409344036073  0.09136063192220933  1.0000
  C   C1152     1.0  0.6773306095958787  0.31596627274387945  0.07346921281332382  1.0000
  H   H841      1.0  0.7500653812157524  0.4045832326293885  0.23171659629900349  1.0000
  H   H842      1.0  0.7355253332998101  0.4235301783214192  0.13966684108225674  1.0000
  H   H843      1.0  0.7799197653172958  0.4414080222835861  0.13787978877103554  1.0000
  H   H844      1.0  0.7929287331120487  0.4197297581745127  0.22815093899436498  1.0000
  H   H845      1.0  0.6817667610238075  0.43537707811012577  0.15306028575834585  1.0000
  H   H846      1.0  0.654534512781934  0.47355932081043917  0.1661885291149565  1.0000
  H   H847      1.0  0.6854539423959835  0.46825438735052366  0.2564005481136579  1.0000
  H   H848      1.0  0.7099008216561535  0.4307990378571873  0.24274034603323183  1.0000
  H   H849      1.0  0.7334333197021266  0.36996051917650374  0.142182808000829  1.0000
  H   H850      1.0  0.7133960931838204  0.3504996035943831  0.09964055945499421  1.0000
  H   H851      1.0  0.6374519298654634  0.36859052460158037  0.13191064725332027  1.0000
  H   H852      1.0  0.6557134742663  0.39290023210234865  0.17212921650954247  1.0000
  H   H853      1.0  0.6824331322319577  0.4009632534388676  0.017218568016012716  1.0000
  H   H854      1.0  0.6909210401336568  0.36551976190320007  0.04841157833476057  1.0000
  H   H855      1.0  0.6126277512529702  0.3678235815380231  0.08010769311808809  1.0000
  H   H856      1.0  0.6023432261503199  0.4034672247853556  0.04455471086372082  1.0000
  H   H857      1.0  0.6530211015103946  0.31414351962900094  0.14240866260316767  1.0000
  H   H858      1.0  0.6177207323349958  0.2877474883233263  0.15987949420454847  1.0000
  H   H859      1.0  0.5820377521474692  0.28859876440254384  0.07299994207952756  1.0000
  H   H860      1.0  0.6178014961631836  0.31771028048189615  0.05679843112711723  1.0000
  H   H861      1.0  0.6614370840869034  0.3188074838607877  0.0283827655236245  1.0000
  H   H862      1.0  0.6869203368000479  0.281775580362129  0.009167713369100383  1.0000
  H   H863      1.0  0.7200399788236486  0.2677246908889772  0.0950454408674517  1.0000
  H   H864      1.0  0.694847082921262  0.3033045939281429  0.11507136380670746  1.0000
  C   C1153     1.0  0.8169536175064451  0.44359264285879474  0.1809508838709685  1.0000
  C   C1154     1.0  0.8213546512418937  0.4642066232883769  0.20625793652258687  1.0000
  H   H865      1.0  0.8341182566180424  0.42924328022363784  0.17975314312549517  1.0000
  H   H866      1.0  0.8177579459422014  0.45403095484329326  0.15971210393332694  1.0000
  H   H867      1.0  0.801211008363847  0.4713776847582488  0.21371669584568756  1.0000
  H   H868      1.0  0.8293500623786134  0.4812336319684356  0.19559853294311552  1.0000
  C   C1155     1.0  0.8208050713810902  0.058791280147860975  0.5075148536647034  1.0000
  C   C1156     1.0  0.8079142561153851  0.05201658665115029  0.47728679379657746  1.0000
  H   H869      1.0  0.8427363103995053  0.05964401731706261  0.5039714261437597  1.0000
  H   H870      1.0  0.8189366446550594  0.042227079864435295  0.5228245056952802  1.0000
  H   H871      1.0  0.8125164120753052  0.06724632939672305  0.4613858295197201  1.0000
  H   H872      1.0  0.7859214825416416  0.05367618838475929  0.47822044471175706  1.0000
  C   C1157     1.0  0.6525550667156828  0.4506389761783767  0.006949180956363765  1.0000
  C   C1158     1.0  0.6347861192100879  0.4259967654156299  0.004219363518648267  1.0000
  H   H873      1.0  0.6733197937824146  0.44640335205999926  0.9999245693088217  1.0000
  H   H874      1.0  0.6553269040393489  0.4546488152775752  0.030596851979621958  1.0000
  H   H875      1.0  0.6346480910569849  0.4175695159222451  0.9817739509220552  1.0000
  H   H876      1.0  0.6139137923795607  0.43187278561803955  0.007900615698499314  1.0000
  C   C1159     1.0  0.6726197178066761  0.057000230886947806  0.7365861057040313  1.0000
  C   C1160     1.0  0.6485224236131836  0.0763812897913696  0.7382622313946156  1.0000
  H   H877      1.0  0.6665749424561566  0.03877114288771137  0.7255779168183891  1.0000
  H   H878      1.0  0.677976598444564  0.05005399489067923  0.7594938978014748  1.0000
  H   H879      1.0  0.6368204611643546  0.07843528321896656  0.7169283079827605  1.0000
  H   H880      1.0  0.6576504669997404  0.09655419283242815  0.7410009407458091  1.0000
  C   C1161     1.0  0.7504316913299575  0.2610677373257444  0.03098787387481267  1.0000
  C   C1162     1.0  0.7222238507549389  0.2514619087652565  0.03686231651398826  1.0000
  H   H881      1.0  0.7488150241276913  0.27764561928266185  0.01564078688849388  1.0000
  H   H882      1.0  0.7598730807698373  0.2706013767718677  0.05043915690555906  1.0000
  H   H883      1.0  0.7138345250762294  0.24301847726963316  0.016328643085360642  1.0000
  H   H884      1.0  0.7227902807197969  0.234935566912694  0.05375961969604439  1.0000
  C   C1163     1.0  0.7788644160137191  0.20789365159428294  0.7493371096313419  1.0000
  C   C1164     1.0  0.8048620223961677  0.22141674512943788  0.7574398657880794  1.0000
  H   H885      1.0  0.767881290430781  0.22152697781090278  0.7352545416607154  1.0000
  H   H886      1.0  0.7679839992569942  0.20727917976554439  0.770399829682121  1.0000
  H   H887      1.0  0.8005322101632488  0.24272020428505753  0.763675320114458  1.0000
  H   H888      1.0  0.8182389568873809  0.22273024559716093  0.7383022450052662  1.0000
  C   C1165     1.0  0.7081358468507649  0.10996556513440536  0.9851239793248546  1.0000
  C   C1166     1.0  0.7354254695555748  0.0970743159706571  0.9819540121699829  1.0000
  H   H889      1.0  0.7077751639098196  0.12769893203577196  0.9717772171945247  1.0000
  H   H890      1.0  0.7059001791354796  0.1174068882743868  0.008242954367398525  1.0000
  H   H891      1.0  0.7357430154591168  0.08571626119347726  0.9618071592074277  1.0000
  H   H892      1.0  0.7385788787801071  0.0819709435928165  0.00014686714576939153  1.0000
  C   C1167     1.0  0.9661810334205978  0.14028392653849964  0.871494216990752  1.0000
  C   C1168     1.0  0.9867993742313754  0.14766743582423814  0.8476527739781288  1.0000
  H   H893      1.0  0.9748747428199609  0.14052126937320158  0.8941997180565734  1.0000
  H   H894      1.0  0.9593407564377749  0.11940697746993321  0.8687177170072774  1.0000
  H   H895      1.0  0.9942370383792108  0.16744996478469168  0.8530012599350866  1.0000
  H   H896      1.0  0.9761888260198626  0.14885862070756278  0.8263499722634462  1.0000
  C   C1169     1.0  0.5061120357541664  0.0013504920307098136  0.2717924503439053  1.0000
  C   C1170     1.0  0.9835015115936541  0.014427990045620223  0.2896073989968809  1.0000
  H   H897      1.0  0.9976772475752896  0.48880339613701645  0.2536573928057253  1.0000
  H   H898      1.0  0.5180088936955393  0.48767648770619487  0.28556824729954416  1.0000
  H   H899      1.0  0.9754115023512278  0.03151610685898117  0.27874814966199374  1.0000
  H   H900      1.0  0.9910501669669168  0.022377660472724287  0.31151485082806063  1.0000
  C   C1171     1.0  0.9087453773332482  0.17358527404764826  0.08382251227131837  1.0000
  C   C1172     1.0  0.91422721897414  0.16555833210562584  0.05090153640640993  1.0000
  H   H901      1.0  0.9017067658203901  0.19364234750124207  0.08549174672895743  1.0000
  H   H902      1.0  0.894076014196804  0.1602477189007223  0.09344511873926638  1.0000
  H   H903      1.0  0.9206462473961669  0.14459299825151659  0.04981205470753004  1.0000
  H   H904      1.0  0.9310059562075298  0.17656804063093307  0.04292837988861264  1.0000
  C   C1173     1.0  0.5876138428513392  0.2420799639645362  0.14277945539519618  1.0000
  C   C1174     1.0  0.576379809209428  0.26749781713012605  0.12774989863917321  1.0000
  H   H905      1.0  0.5901640613637676  0.24607947166153682  0.1671108428404518  1.0000
  H   H906      1.0  0.6077585784793913  0.23718139339226896  0.13496613102216415  1.0000
  H   H907      1.0  0.5637706188153204  0.2609967981171366  0.10933118906104819  1.0000
  H   H908      1.0  0.5618211913896495  0.2774511308828744  0.1429006077163326  1.0000
  C   C1175     1.0  0.6505720818965732  0.4978068771355895  0.21872395462293084  1.0000
  C   C1176     1.0  0.6603031171879015  0.02346790886115232  0.20413921583863986  1.0000
  H   H909      1.0  0.6305607302970629  0.4933322882697205  0.2122215205943784  1.0000
  H   H910      1.0  0.6503067927801562  0.0009727417625848978  0.2433805638036407  1.0000
  H   H911      1.0  0.6638327280578771  0.0188901361894752  0.18056208495414725  1.0000
  H   H912      1.0  0.6798595846302226  0.03068663006284686  0.212363124316514  1.0000
  C   C1177     1.0  0.5072362229966566  0.08533698835413048  0.98671118588066  1.0000
  C   C1178     1.0  0.5018004151269138  0.11401630068140155  0.9973748131190333  1.0000
  H   H913      1.0  0.995263882703574  0.08302973814707264  0.966339812102788  1.0000
  H   H914      1.0  0.9996731373053483  0.07128077104042313  0.0023698455152445508  1.0000
  H   H915      1.0  0.9808491848582777  0.11817043939853632  0.9950406858310844  1.0000
  H   H916      1.0  0.5099780598448682  0.1273707443378943  0.9801978592580973  1.0000
  C   C1179     1.0  0.707626851934982  0.21684619256167778  0.5152552643472166  1.0000
  C   C1180     1.0  0.7173113204635924  0.24506960151071452  0.5103246983237203  1.0000
  H   H917      1.0  0.7024346595755709  0.20744945404303378  0.49344340058592434  1.0000
  H   H918      1.0  0.6892036543022602  0.2176396729616738  0.5286287022179803  1.0000
  H   H919      1.0  0.735320507646583  0.24628260504252375  0.4967734221833985  1.0000
  H   H920      1.0  0.7234017470708878  0.2543954468383786  0.5321943595226188  1.0000
  C   C1181     1.0  0.5454883435175957  0.19629402995339845  0.2953048925578462  1.0000
  C   C1182     1.0  0.5706918202876414  0.18003198581583466  0.2991439762019302  1.0000
  H   H921      1.0  0.5286095709570126  0.18671929600248718  0.30697108304085297  1.0000
  H   H922      1.0  0.5392234498212356  0.19596262063057  0.2718391328896643  1.0000
  H   H923      1.0  0.5729326552617265  0.1755053915192955  0.322894277101405  1.0000
  H   H924      1.0  0.5881525103025297  0.19138868360799874  0.2935998681484586  1.0000
  C   C1183     1.0  0.9973380650173678  0.3668527077654751  0.2952048585312198  1.0000
  C   C1184     1.0  0.9693259468679425  0.354193657457608  0.29631857069432704  1.0000
  H   H925      1.0  0.5011525249427095  0.3739088667929502  0.2724682357682258  1.0000
  H   H926      1.0  0.9963374570942508  0.38493217151262527  0.3090051082489229  1.0000
  H   H927      1.0  0.9665707910676836  0.3413508535101999  0.31599637522092294  1.0000
  H   H928      1.0  0.9651869542811464  0.34104057731465287  0.277823390660292  1.0000
  C   C1185     1.0  0.7173699389828906  0.39472504548710025  0.4399896627135197  1.0000
  C   C1186     1.0  0.7449139172265437  0.3814282697540741  0.43668409387810986  1.0000
  H   H929      1.0  0.712850573637346  0.4066554051565753  0.42038077051637757  1.0000
  H   H930      1.0  0.7180750764949501  0.4086257435481867  0.45920286476089534  1.0000
  H   H931      1.0  0.7447457812239683  0.3682140703618209  0.41621268607361117  1.0000
  H   H932      1.0  0.7490839583547735  0.3680570773547522  0.45613070865428035  1.0000
  C   C1187     1.0  0.7089965291096202  0.33297045098235023  0.2939088621418157  1.0000
  C   C1188     1.0  0.6946335353033849  0.3067284337982498  0.29529822362273783  1.0000
  H   H933      1.0  0.7305441257608475  0.32984317721270373  0.298441515037176  1.0000
  H   H934      1.0  0.7033748349930108  0.3460841421303257  0.3124351638730234  1.0000
  H   H935      1.0  0.7052865057177506  0.2942779770309563  0.3112614312939404  1.0000
  H   H936      1.0  0.6961578899981505  0.2969200232366458  0.27329518372167066  1.0000
  C   C1189     1.0  0.9954975966259527  0.4607946084347565  0.7869121130105838  1.0000
  C   C1190     1.0  0.9846878662668915  0.4886465192684865  0.7950082002322132  1.0000
  H   H937      1.0  0.5019829270926068  0.4514311736053728  0.8081926849415716  1.0000
  H   H938      1.0  0.5131047944137751  0.46367066964381637  0.7732652488003747  1.0000
  H   H939      1.0  0.9736306568231214  0.49749832100324487  0.7752436995492078  1.0000
  H   H940      1.0  0.9692820217048119  0.48723824670170257  0.8126542025291086  1.0000
  C   C1191     1.0  0.9492249169492541  0.3928567629900542  0.48782593424626014  1.0000
  C   C1192     1.0  0.9411243296666975  0.41955070511661097  0.4747703822823312  1.0000
  H   H941      1.0  0.9708577770572664  0.3928980573449698  0.49229412076890555  1.0000
  H   H942      1.0  0.9453196575427427  0.37794764382819973  0.4698953907180718  1.0000
  H   H943      1.0  0.9559242043811652  0.42419845649889526  0.4570065621318536  1.0000
  H   H944      1.0  0.9459441448995173  0.4338166599924161  0.4924208305359657  1.0000
  C   C1193     1.0  0.8427014171368676  0.015188907208543167  0.7289412830914055  1.0000
  C   C1194     1.0  0.8358390506723244  0.48735160272405836  0.7179842227082613  1.0000
  H   H945      1.0  0.8620635097823305  0.021159390275648688  0.7199471126085082  1.0000
  H   H946      1.0  0.8454491348122225  0.015010696602420513  0.7534207208960682  1.0000
  H   H947      1.0  0.8290442600810274  0.48768731641293284  0.6943606315758466  1.0000
  H   H948      1.0  0.8182863891365108  0.48074601623338015  0.7297148795639828  1.0000
  C   C1195     1.0  0.8641057300605528  0.258703057866868  0.6217514890936728  1.0000
  C   C1196     1.0  0.8627330735847318  0.24412523791838855  0.5916234632521733  1.0000
  H   H949      1.0  0.870995002216551  0.24423587563608232  0.6388039561659183  1.0000
  H   H950      1.0  0.8446343801958359  0.2655671763796462  0.6290250743185963  1.0000
  H   H951      1.0  0.8828405046932842  0.23817731934515607  0.5857370165298024  1.0000
  H   H952      1.0  0.8580191320992773  0.2580794824548598  0.5732461010717204  1.0000
  C   C1197     1.0  0.542917610109971  0.3239200843740028  0.5623623989747689  1.0000
  C   C1198     1.0  0.5425927856180175  0.33055170633077463  0.5286375941314583  1.0000
  H   H953      1.0  0.5577722083763613  0.33482390876613666  0.5755713364461916  1.0000
  H   H954      1.0  0.5493505080321208  0.303761387648626  0.5663948817369974  1.0000
  H   H955      1.0  0.5351637515178695  0.35139453133342874  0.5252542210531168  1.0000
  H   H956      1.0  0.5273698468086275  0.3176691006558077  0.5181273524005788  1.0000
  C   C1199     1.0  0.8855385113728512  0.30935526253165613  0.8110825568218896  1.0000
  C   C1200     1.0  0.8853257412778183  0.30274330521748893  0.7775289213130283  1.0000
  H   H957      1.0  0.8708782386908728  0.3253131344435875  0.8158930820134341  1.0000
  H   H958      1.0  0.9048232350561758  0.31884611968133963  0.8166533406157949  1.0000
  H   H959      1.0  0.8657557388433534  0.29551872893464437  0.7695239762045476  1.0000
  H   H960      1.0  0.8990804517075723  0.28595741374245365  0.7726539297487689  1.0000
  C   C1201     1.0  0.9375698843194337  0.8852795885398138  0.5182273864272052  1.0000
  C   C1202     1.0  0.9295896607035558  0.8596888041903046  0.5199390797717011  1.0000
  C   C1203     1.0  0.9249740377511616  0.8491257197949933  0.547121659273646  1.0000
  C   C1204     1.0  0.9290501437410649  0.8631230835767832  0.5738285214045229  1.0000
  C   C1205     1.0  0.9350515272595235  0.8897079875050452  0.570714128708888  1.0000
  C   C1206     1.0  0.9394890769373564  0.9005204493158052  0.543647144082156  1.0000
  H   H961      1.0  0.9278530245337218  0.8474572830302133  0.5006791951785666  1.0000
  H   H962      1.0  0.9212862119942304  0.8278975499460344  0.5474662209209147  1.0000
  H   H963      1.0  0.9386015890808326  0.9010975919996133  0.5903941562138534  1.0000
  H   H964      1.0  0.9458097355766492  0.9205986820785955  0.5422600055796033  1.0000
  C   C1207     1.0  0.9855302849668368  0.8570733835192252  0.5987992374288398  1.0000
  C   C1208     1.0  0.9654240505907604  0.8390410170687601  0.5959604940510197  1.0000
  C   C1209     1.0  0.971167411113453  0.8156603600609783  0.5819757371286501  1.0000
  C   C1210     1.0  0.9963639278126019  0.8091923744809743  0.5734550610384511  1.0000
  C   C1211     1.0  0.5156643662752355  0.8282193961794754  0.5755290998571716  1.0000
  C   C1212     1.0  0.5103508954681679  0.8515385741210542  0.5894538363635653  1.0000
  C   C1213     1.0  0.9356225209613722  0.8483546226732758  0.6036786749498382  1.0000
  C   C1214     1.0  0.9161251942124606  0.8247961182618827  0.6097585207903533  1.0000
  C   C1215     1.0  0.9240653715492386  0.803457591526161  0.627237799709538  1.0000
  C   C1216     1.0  0.9079987025440697  0.7819021877929546  0.6307745582953733  1.0000
  C   C1217     1.0  0.8830155334461112  0.7820149594589995  0.6187704751002064  1.0000
  C   C1218     1.0  0.8743597311233927  0.803565884700568  0.6030540180280156  1.0000
  C   C1219     1.0  0.8903042080177065  0.8250287339205492  0.5995928407067425  1.0000
  C   C1220     1.0  0.950049697539896  0.8649584012267457  0.6561431874478263  1.0000
  C   C1221     1.0  0.9459290932035768  0.8789307349443154  0.6820119867334109  1.0000
  C   C1222     1.0  0.9222968677905133  0.8912908771859824  0.6872715535555897  1.0000
  C   C1223     1.0  0.9036934146258033  0.8912927119153208  0.6641481325563069  1.0000
  C   C1224     1.0  0.909047084254778  0.8793061419639506  0.6373545742690203  1.0000
  C   C1225     1.0  0.9319486114245815  0.8651814828263776  0.6330153204918045  1.0000
  C   C1226     1.0  0.9154651097318048  0.902255886126277  0.7195380845885245  1.0000
  C   C1227     1.0  0.8931406822263739  0.826970354623213  0.7591048765868165  1.0000
  C   C1228     1.0  0.9186189061651061  0.8355126317866399  0.7605831572025177  1.0000
  C   C1229     1.0  0.9254032592628605  0.8590986224480113  0.7484368033917044  1.0000
  C   C1230     1.0  0.907320648591062  0.87460340034559  0.73349838874883  1.0000
  C   C1231     1.0  0.8816073423388057  0.8646098468183137  0.7302083807620063  1.0000
  C   C1232     1.0  0.8748490170347506  0.8413034203626487  0.7431127701968109  1.0000
  C   C1233     1.0  0.8935377445313774  0.9251515392213848  0.7197203688148216  1.0000
  C   C1234     1.0  0.8940954000602216  0.9453948422826991  0.6990377780652228  1.0000
  C   C1235     1.0  0.8752988126500372  0.9643996048870225  0.6979663024911357  1.0000
  C   C1236     1.0  0.8568449909227358  0.9658954425442267  0.7196314496800426  1.0000
  C   C1237     1.0  0.8566510973871663  0.9471766851909625  0.741667834256652  1.0000
  C   C1238     1.0  0.8746526283964254  0.9266613284014378  0.7414166377009013  1.0000
  C   C1239     1.0  0.9377750451809375  0.9174557681773664  0.7681746283342762  1.0000
  C   C1240     1.0  0.9567943777284272  0.9296314629727542  0.784293444491342  1.0000
  C   C1241     1.0  0.9758838183524866  0.9434453170678558  0.769899659548989  1.0000
  C   C1242     1.0  0.9762078613172052  0.9440611611526974  0.7396493698971682  1.0000
  C   C1243     1.0  0.9575841185493312  0.9308470646246743  0.7232193367683757  1.0000
  C   C1244     1.0  0.9377386263879797  0.9169694933892604  0.7374864119436688  1.0000
  H   H965      1.0  0.9804075871568895  0.8769881700684353  0.607082054833505  1.0000
  H   H966      1.0  0.9562017400960819  0.801342573927734  0.5772563540502539  1.0000
  H   H967      1.0  0.500213029160299  0.7907455927651346  0.5616977284422958  1.0000
  H   H968      1.0  0.5258697644830413  0.8662644516352291  0.5929528043171195  1.0000
  H   H969      1.0  0.943430580287903  0.802175018185744  0.6371678440859845  1.0000
  H   H970      1.0  0.91516097603942  0.7648722915975714  0.6432098992942186  1.0000
  H   H971      1.0  0.8540433980237025  0.8044517864506123  0.5952380260809402  1.0000
  H   H972      1.0  0.882733631562925  0.8417111846326306  0.5877243591921135  1.0000
  H   H973      1.0  0.9682731152248628  0.8542553003028148  0.6547805017073378  1.0000
  H   H974      1.0  0.9600476555813673  0.8762011635499263  0.7002515242549564  1.0000
  H   H975      1.0  0.884582011844822  0.8999443552902457  0.6683162169990733  1.0000
  H   H976      1.0  0.893911253683083  0.8792777429498565  0.6195996460320207  1.0000
  H   H977      1.0  0.9325971913036883  0.8242274113401193  0.7734453100483022  1.0000
  H   H978      1.0  0.9462986559788379  0.8636312091489017  0.750099591212072  1.0000
  H   H979      1.0  0.867159982096811  0.87546830812229  0.717337336002744  1.0000
  H   H980      1.0  0.8543587696686105  0.8360425922535526  0.7421413286493501  1.0000
  H   H981      1.0  0.9086424696848782  0.9449181472240782  0.6818252565503752  1.0000
  H   H982      1.0  0.8733508627740226  0.9781027258533236  0.6800335359845779  1.0000
  H   H983      1.0  0.8430447126291364  0.948148529021309  0.7602030279013374  1.0000
  H   H984      1.0  0.8737694653547806  0.9121127120281393  0.7588603489661743  1.0000
  H   H985      1.0  0.9222822765568857  0.9071904703602991  0.7791628104145929  1.0000
  H   H986      1.0  0.9560262347444048  0.9289685057968589  0.8085972670048159  1.0000
  H   H987      1.0  0.9911505396370079  0.9553729360803662  0.7285144712444661  1.0000
  H   H988      1.0  0.960354346895788  0.9305140015557853  0.6993334341883629  1.0000
  C   C1245     1.0  0.6655997075337703  0.8069448929322546  0.30511934205908  1.0000
  C   C1246     1.0  0.6503353288276879  0.8291853801810906  0.31201057500445356  1.0000
  C   C1247     1.0  0.6252970099860803  0.8259162323147278  0.3211536850381057  1.0000
  C   C1248     1.0  0.6137577132185832  0.8016078360583829  0.32393018502158044  1.0000
  C   C1249     1.0  0.6293271862408265  0.779907473971823  0.31874619946396393  1.0000
  C   C1250     1.0  0.6538297414682718  0.782488501649859  0.30743790849844277  1.0000
  H   H989      1.0  0.6577273999749226  0.8486928088569948  0.3121639605119474  1.0000
  H   H990      1.0  0.6136312965036489  0.8429155285432128  0.3280471409618489  1.0000
  H   H991      1.0  0.6212646271269365  0.760454643675226  0.3229276217769471  1.0000
  H   H992      1.0  0.6646855165104972  0.7645218552321382  0.30272519435515505  1.0000
  C   C1251     1.0  0.5728871600562797  0.7652264872760275  0.2955338593299022  1.0000
  C   C1252     1.0  0.5709474943564368  0.7719831799300951  0.32520395162728993  1.0000
  C   C1253     1.0  0.5560959947114257  0.7563206125765106  0.3432189683335182  1.0000
  C   C1254     1.0  0.5457066432222545  0.7332002392993151  0.3331244235577306  1.0000
  C   C1255     1.0  0.5514220381645072  0.725105939562086  0.3049237199625662  1.0000
  C   C1256     1.0  0.565111721048746  0.7408442836627792  0.2860839782812625  1.0000
  C   C1257     1.0  0.5852565999438855  0.7975195837899156  0.33728139310864946  1.0000
  C   C1258     1.0  0.5634677903345627  0.8186582281161281  0.32674002968059734  1.0000
  C   C1259     1.0  0.5420614887279426  0.8236983539820929  0.34441715367466547  1.0000
  C   C1260     1.0  0.5216081865363186  0.8396945286159292  0.3348672385993993  1.0000
  C   C1261     1.0  0.5208862205410756  0.8500147709774258  0.30671988648510223  1.0000
  C   C1262     1.0  0.5416224262048345  0.8446375986594705  0.288738214454416  1.0000
  C   C1263     1.0  0.5629851820576042  0.8296731727857966  0.2984148392967423  1.0000
  C   C1264     1.0  0.6045010512076228  0.7778755006846452  0.3877341101822624  1.0000
  C   C1265     1.0  0.6175458136588556  0.7813584532309831  0.41433871530814353  1.0000
  C   C1266     1.0  0.6208059079645137  0.8064703516017719  0.4259760070723471  1.0000
  C   C1267     1.0  0.6092520420074897  0.8274327869130608  0.4113221336607655  1.0000
  C   C1268     1.0  0.5964345412855062  0.8238563173557909  0.3845485821788042  1.0000
  C   C1269     1.0  0.5946266241159123  0.7993221735436526  0.3716308548737829  1.0000
  C   C1270     1.0  0.6362217425553595  0.8134092803008116  0.4562707562915574  1.0000
  C   C1271     1.0  0.5680623724840763  0.8272420215236386  0.5119230197713731  1.0000
  C   C1272     1.0  0.5772182932453774  0.8026394069820217  0.5062032964267129  1.0000
  C   C1273     1.0  0.5979674309342533  0.7984241069367687  0.4877792517005011  1.0000
  C   C1274     1.0  0.6119688829837558  0.8189124965055005  0.47666213687475484  1.0000
  C   C1275     1.0  0.6023874381645897  0.8440792154233203  0.4821506704689895  1.0000
  C   C1276     1.0  0.5809148690311894  0.8483574169402693  0.4999922948623987  1.0000
  C   C1277     1.0  0.6567966807046117  0.8368105407432209  0.4519003808171688  1.0000
  C   C1278     1.0  0.6694081016967937  0.8400367449946131  0.4253224514317213  1.0000
  C   C1279     1.0  0.6884488663832987  0.8587384038137817  0.42152782735502686  1.0000
  C   C1280     1.0  0.6955849000738227  0.8744944706642087  0.4448335325806066  1.0000
  C   C1281     1.0  0.6837049057417658  0.871827915981869  0.4720561256932019  1.0000
  C   C1282     1.0  0.6641903717199416  0.8533814368820898  0.475432829836435  1.0000
  C   C1283     1.0  0.6603604489791897  0.7921529952570037  0.5016706435313527  1.0000
  C   C1284     1.0  0.6800096735365239  0.7774432006273815  0.5138014364935797  1.0000
  C   C1285     1.0  0.6951899228857813  0.7612367501135545  0.49602872442962415  1.0000
  C   C1286     1.0  0.6910700834191695  0.761254633802355  0.4659407121987752  1.0000
  C   C1287     1.0  0.6719062028480768  0.7767809057048147  0.4529496266075611  1.0000
  C   C1288     1.0  0.6560257247476284  0.7924861989845858  0.4708846160924884  1.0000
  H   H993      1.0  0.5819641507120965  0.7779134442628023  0.2794261580646837  1.0000
  H   H994      1.0  0.5536707015339503  0.7610625877833525  0.3664579842080137  1.0000
  H   H995      1.0  0.5371404455726181  0.7195904244916519  0.3486630423603634  1.0000
  H   H996      1.0  0.5686508930041317  0.7349440985833918  0.2632139768160999  1.0000
  H   H997      1.0  0.5408499395720209  0.814590157133638  0.3668003228769129  1.0000
  H   H998      1.0  0.5056516251511453  0.843201460806124  0.35049922249355  1.0000
  H   H999      1.0  0.5426749950289289  0.8519333884784102  0.26615053124217686  1.0000
  H   H1000     1.0  0.5787530062586661  0.8259725399424158  0.28326079575202867  1.0000
  H   H1001     1.0  0.6036045370582322  0.758083948426065  0.37863768269436926  1.0000
  H   H1002     1.0  0.6260207679616248  0.7650486880659233  0.42653175166471585  1.0000
  H   H1003     1.0  0.6106964399598181  0.8473502528764474  0.42078757555799157  1.0000
  H   H1004     1.0  0.5888268722918496  0.8409423890622489  0.372833486171669  1.0000
  H   H1005     1.0  0.5678651344847129  0.785523648301878  0.5153953119844935  1.0000
  H   H1006     1.0  0.604682636434186  0.7780363353130342  0.4838045663758791  1.0000
  H   H1007     1.0  0.6126454546942005  0.8606191466757476  0.4707134467580387  1.0000
  H   H1008     1.0  0.5738827647362252  0.8682706724580922  0.5033689990056317  1.0000
  H   H1009     1.0  0.6643809342749868  0.8275144400200176  0.40646937188020077  1.0000
  H   H1010     1.0  0.6982377971760566  0.8611426520226592  0.40094304765368505  1.0000
  H   H1011     1.0  0.6898211944160839  0.8844605343012307  0.4898243918004184  1.0000
  H   H1012     1.0  0.6558993581078719  0.8509747181907752  0.4968956859937196  1.0000
  H   H1013     1.0  0.6489268912537451  0.8050096100756333  0.516117779954573  1.0000
  H   H1014     1.0  0.6832023718177973  0.7768852269911866  0.5376740012033757  1.0000
  H   H1015     1.0  0.7028681779238081  0.7485954908779273  0.45197373910336147  1.0000
  H   H1016     1.0  0.6693537640040507  0.7769938430902903  0.4287502840774523  1.0000
  C   C1289     1.0  0.5092977367571195  0.6229613889454223  0.02911990515094252  1.0000
  C   C1290     1.0  0.5135954867584048  0.6051642167604698  0.05175338171759289  1.0000
  C   C1291     1.0  0.5163623310680631  0.6142838191475103  0.08050093799164827  1.0000
  C   C1292     1.0  0.518039250825001  0.6410407013668784  0.08679841341453505  1.0000
  C   C1293     1.0  0.5160460869193525  0.6582641099238694  0.06304633413236467  1.0000
  C   C1294     1.0  0.5121769083667334  0.6493294374660407  0.034403257841674625  1.0000
  H   H1017     1.0  0.5121438653665474  0.5843526035360728  0.04836044983226263  1.0000
  H   H1018     1.0  0.5147116937354593  0.600771749361497  0.09888874817043763  1.0000
  H   H1019     1.0  0.5149239226099389  0.6789477619691275  0.06715617654185073  1.0000
  H   H1020     1.0  0.5084389159661423  0.6634203283686742  0.016361120799338675  1.0000
  C   C1295     1.0  0.9667781492269745  0.6421734242638051  0.12362004942436189  1.0000
  C   C1296     1.0  0.9860700636239734  0.6613574161221378  0.12050209996333577  1.0000
  C   C1297     1.0  0.9776059447273738  0.6864423515431738  0.11274168247549728  1.0000
  C   C1298     1.0  0.9519358212409906  0.6911073284741287  0.10447353672807058  1.0000
  C   C1299     1.0  0.933959619909809  0.6706924153725045  0.10208561336358019  1.0000
  C   C1300     1.0  0.9419552550177615  0.646526110271903  0.1133563359946572  1.0000
  C   C1301     1.0  0.5167105519150497  0.6523967733300525  0.12014353355233941  1.0000
  C   C1302     1.0  0.5358257185124459  0.6769612890077287  0.12632252422813312  1.0000
  C   C1303     1.0  0.5324858098279035  0.6933306229990478  0.15094556643546392  1.0000
  C   C1304     1.0  0.5491243996644415  0.7141225053809432  0.15605130315447494  1.0000
  C   C1305     1.0  0.5691945328572543  0.7188216948650288  0.1373022589906458  1.0000
  C   C1306     1.0  0.5735069375512052  0.7019564863861806  0.11428398486823926  1.0000
  C   C1307     1.0  0.5577463754763795  0.6806586995647127  0.10918847384972784  1.0000
  C   C1308     1.0  0.5142082856446267  0.6277304991223635  0.17117755946957006  1.0000
  C   C1309     1.0  0.5250178843418234  0.6121589122231238  0.19353538671840548  1.0000
  C   C1310     1.0  0.5505514531864548  0.6022102288913223  0.1912052607915214  1.0000
  C   C1311     1.0  0.5636531392428261  0.6074372887883885  0.16522798016150617  1.0000
  C   C1312     1.0  0.552109502994888  0.6215929491994012  0.1427114322570902  1.0000
  C   C1313     1.0  0.5271916422564188  0.632681434452026  0.14486438680792713  1.0000
  C   C1314     1.0  0.5656235124454924  0.5883886666780915  0.21935038992744893  1.0000
  C   C1315     1.0  0.5692137266960058  0.6562790279204094  0.27981295630097247  1.0000
  C   C1316     1.0  0.5504247389620343  0.637519864702674  0.2837542969500523  1.0000
  C   C1317     1.0  0.5478005864805273  0.6171773772823533  0.2637297077978182  1.0000
  C   C1318     1.0  0.566581540515753  0.6129373078591825  0.24177335044250997  1.0000
  C   C1319     1.0  0.5854989735879205  0.6326532897683321  0.23754302260539842  1.0000
  C   C1320     1.0  0.5860348353362067  0.6540354860621048  0.2563538655678989  1.0000
  C   C1321     1.0  0.5942505432724051  0.5756121908947508  0.21467279884239893  1.0000
  C   C1322     1.0  0.5967135024592456  0.5597458363955315  0.1897983377814804  1.0000
  C   C1323     1.0  0.6185334347838567  0.5445996519103652  0.1851692076248849  1.0000
  C   C1324     1.0  0.6385985029212284  0.5444918167238957  0.205905816748862  1.0000
  C   C1325     1.0  0.6375453727777093  0.5613811055953936  0.22967145619908613  1.0000
  C   C1326     1.0  0.6152432515958849  0.576659552877724  0.23402404784651887  1.0000
  C   C1327     1.0  0.5559967380889442  0.5549999189487537  0.2612710937211784  1.0000
  C   C1328     1.0  0.5424211888771792  0.5351031171010476  0.2740198746701197  1.0000
  C   C1329     1.0  0.5229591894679473  0.522782871484957  0.2579166193616401  1.0000
  C   C1330     1.0  0.5185411414159425  0.5300360679618937  0.22857330488456526  1.0000
  C   C1331     1.0  0.5316217455416974  0.5504969681031033  0.2167461707676086  1.0000
  C   C1332     1.0  0.5503401225582731  0.5641500182792085  0.23322155265513828  1.0000
  H   H1021     1.0  0.9715187238800861  0.6223549281228554  0.12961164302360884  1.0000
  H   H1022     1.0  0.9921165649987708  0.7017178531367463  0.10936942428900313  1.0000
  H   H1023     1.0  0.947055828466549  0.7103500408734749  0.09554516640490976  1.0000
  H   H1024     1.0  0.9289208278987962  0.6298657785954953  0.11322740324922764  1.0000
  H   H1025     1.0  0.5156994219977532  0.6908858751476206  0.16480472507995805  1.0000
  H   H1026     1.0  0.5458364968736594  0.726311228895294  0.17548013410368962  1.0000
  H   H1027     1.0  0.5911652142616479  0.7027906338634646  0.10135002982112078  1.0000
  H   H1028     1.0  0.5631157706443968  0.6686414404646793  0.09005685510851202  1.0000
  H   H1029     1.0  0.9951919413687971  0.63620729738915  0.1760967883033821  1.0000
  H   H1030     1.0  0.5137035195833086  0.6088987875882785  0.21395499912689533  1.0000
  H   H1031     1.0  0.5843296839029708  0.601989548410411  0.16329710114977986  1.0000
  H   H1032     1.0  0.5637551743805426  0.6251419939239803  0.12301762228623409  1.0000
  H   H1033     1.0  0.5364854496246051  0.6383600246433585  0.30170929324030477  1.0000
  H   H1034     1.0  0.5320261552507594  0.6032091103531478  0.2676532646199422  1.0000
  H   H1035     1.0  0.5998575878188234  0.6311540507577688  0.21998260497572772  1.0000
  H   H1036     1.0  0.6009840710030554  0.6685955541057579  0.2522591394113253  1.0000
  H   H1037     1.0  0.5800936012339769  0.5568679970938231  0.17438487266104907  1.0000
  H   H1038     1.0  0.618902610970686  0.5307776706316701  0.1670325940018463  1.0000
  H   H1039     1.0  0.652911391530109  0.5619350349555948  0.24637936162406293  1.0000
  H   H1040     1.0  0.614409242112407  0.5881523672905116  0.25488003090893674  1.0000
  H   H1041     1.0  0.5702260193749661  0.5644282413978107  0.2746445315919422  1.0000
  H   H1042     1.0  0.5465237401985626  0.5278269673591682  0.29607626605205417  1.0000
  H   H1043     1.0  0.5036822982957531  0.520415068867915  0.21495422790397448  1.0000
  H   H1044     1.0  0.5270268936801332  0.5550918701846272  0.19393752350544355  1.0000
  C   C1333     1.0  0.8199412983231165  0.7102512766897425  0.7846646818790444  1.0000
  C   C1334     1.0  0.8464875248977347  0.706510044788809  0.7822838720453363  1.0000
  C   C1335     1.0  0.8615001934264437  0.7018299342709515  0.8073857437934521  1.0000
  C   C1336     1.0  0.8508817555315018  0.7009895407325656  0.8357976303337168  1.0000
  C   C1337     1.0  0.8235979628288447  0.7041218542752407  0.837062505025948  1.0000
  C   C1338     1.0  0.8083874397205304  0.7077730403556483  0.8120495524126115  1.0000
  H   H1045     1.0  0.8560289917897153  0.7087472334726452  0.761416774091071  1.0000
  H   H1046     1.0  0.8828429227069474  0.7028761256205551  0.8056607125787393  1.0000
  H   H1047     1.0  0.813303990105793  0.7057057421269591  0.8580096302015144  1.0000
  H   H1048     1.0  0.7872343691588284  0.7120212492945366  0.8137390159734127  1.0000
  C   C1339     1.0  0.85701364794681  0.7563992668223611  0.8595857218654726  1.0000
  C   C1340     1.0  0.8765725298426985  0.7370748015074592  0.8582341510168315  1.0000
  C   C1341     1.0  0.9000537003588988  0.7438844876826348  0.8451541462908383  1.0000
  C   C1342     1.0  0.9037533512822258  0.7683706967655386  0.8338480783036866  1.0000
  C   C1343     1.0  0.8827576978132906  0.7860701062075588  0.8313983561405249  1.0000
  C   C1344     1.0  0.8600956461833701  0.7804597921573622  0.8460344457251507  1.0000
  C   C1345     1.0  0.8699182391936606  0.7064866791129207  0.8646830112666796  1.0000
  C   C1346     1.0  0.8959326009780986  0.688532430795091  0.8679885801020892  1.0000
  C   C1347     1.0  0.9169782447862902  0.694345572142532  0.8873151540463082  1.0000
  C   C1348     1.0  0.9397428343454431  0.6788972244068643  0.8881821156104036  1.0000
  C   C1349     1.0  0.9417242598724395  0.657656686531804  0.8696246921820231  1.0000
  C   C1350     1.0  0.9213528728792222  0.6507302955682944  0.8509472279216912  1.0000
  C   C1351     1.0  0.8984762196305609  0.6656291122537985  0.8511028364075546  1.0000
  C   C1352     1.0  0.8535344477500355  0.7181861030985304  0.9174009432987876  1.0000
  C   C1353     1.0  0.840812879180456  0.7124441152917926  0.9432541817357863  1.0000
  C   C1354     1.0  0.8307239197380561  0.6878422756744679  0.9486226744980693  1.0000
  C   C1355     1.0  0.8338493701359596  0.6695235974671288  0.9260461061776775  1.0000
  C   C1356     1.0  0.8454908042559762  0.6751674760388247  0.8997104814345028  1.0000
  C   C1357     1.0  0.8557674885275235  0.6999144145881618  0.8950177740965402  1.0000
  C   C1358     1.0  0.8174039658637632  0.6792084658350142  0.9794509385259534  1.0000
  C   C1359     1.0  0.8902802684541058  0.6686334936681143  0.03016826174998711  1.0000
  C   C1360     1.0  0.8783722382705462  0.6930976325238791  0.028764006313989524  1.0000
  C   C1361     1.0  0.855219333050513  0.695583248057421  0.014044821797912737  1.0000
  C   C1362     1.0  0.8436726454341342  0.674922749139599  0.9988486477779954  1.0000
  C   C1363     1.0  0.85636343635853  0.6512012299365371  0.9993999464136256  1.0000
  C   C1364     1.0  0.879656407625573  0.6481513367661541  0.01471193760659229  1.0000
  C   C1365     1.0  0.7970188228182183  0.6552166941339798  0.9779459821698189  1.0000
  C   C1366     1.0  0.778314606687266  0.65271948685735  0.9558918137662537  1.0000
  C   C1367     1.0  0.7589335765722135  0.6339230344489901  0.9562319294567835  1.0000
  C   C1368     1.0  0.7582817159119665  0.6164621068123296  0.9793175598237851  1.0000
  C   C1369     1.0  0.7765143992943614  0.6184627086155567  0.00223868979144548  1.0000
  C   C1370     1.0  0.7957927350676941  0.6373706723046126  0.0018207698579841833  1.0000
  C   C1371     1.0  0.7946219794266236  0.7016669640724249  0.02416644245024057  1.0000
  C   C1372     1.0  0.7792454512621293  0.720666722259892  0.03637881871862738  1.0000
  C   C1373     1.0  0.766965130485985  0.7392330493488243  0.018278661940848123  1.0000
  C   C1374     1.0  0.7688647870898395  0.7375116365275224  0.9877848844331168  1.0000
  C   C1375     1.0  0.7843230756497905  0.718218092578262  0.9757185578436044  1.0000
  C   C1376     1.0  0.7985672588564141  0.7006568744449457  0.9934512562969093  1.0000
  H   H1049     1.0  0.8390537609486467  0.752315347929096  0.8700226053101593  1.0000
  H   H1050     1.0  0.9150130504187034  0.7292978571359098  0.8403925266234221  1.0000
  H   H1051     1.0  0.9224999657546744  0.7714315966044895  0.822490881814037  1.0000
  H   H1052     1.0  0.8441571922793919  0.7953735876562609  0.8455787351594083  1.0000
  H   H1053     1.0  0.914718614894733  0.7107889618481656  0.9026959413847083  1.0000
  H   H1054     1.0  0.9548808901804003  0.6839848991156717  0.9036851667591247  1.0000
  H   H1055     1.0  0.9224924250286998  0.6334759870036868  0.8370358292855142  1.0000
  H   H1056     1.0  0.8826908100946242  0.658656135094216  0.8357976303337168  1.0000
  H   H1057     1.0  0.8635488216350601  0.7368087991104176  0.915629229538316  1.0000
  H   H1058     1.0  0.8411842770741623  0.7271288307614338  0.9608890691408343  1.0000
  H   H1059     1.0  0.8276708723467299  0.6492250229230077  0.928671443632028  1.0000
  H   H1060     1.0  0.8463074569022631  0.6614230996975052  0.8826691292541048  1.0000
  H   H1061     1.0  0.8878416279145799  0.7103015079343062  0.038545555735355015  1.0000
  H   H1062     1.0  0.8465964829846355  0.7152072277342674  0.012038005845085157  1.0000
  H   H1063     1.0  0.848085339216955  0.635654194191544  0.985584135847336  1.0000
  H   H1064     1.0  0.8890644191533127  0.628954140849671  0.015278374724918312  1.0000
  H   H1065     1.0  0.7766414784724689  0.6669665185479443  0.9379679391731738  1.0000
  H   H1066     1.0  0.7443867446018124  0.6333688328791576  0.9392039151466022  1.0000
  H   H1067     1.0  0.7750355060138597  0.6052503347840839  0.020932075612005004  1.0000
  H   H1068     1.0  0.8079944938572441  0.6389407963635785  0.021031909570578138  1.0000
  H   H1069     1.0  0.8052111892411496  0.6879727634769447  0.03904528127281308  1.0000
  H   H1070     1.0  0.7768256002821061  0.7217789868971639  0.06047434815888168  1.0000
  H   H1071     1.0  0.758073281810469  0.7513876346872431  0.9736200662628198  1.0000
  H   H1072     1.0  0.7855767853338639  0.7166871574719396  0.951661485929142  1.0000
  C   C1377     1.0  0.535896256143139  0.5774260136008154  0.9787351394909825  1.0000
  C   C1378     1.0  0.5572264037180206  0.5941363616557669  0.9805290830351491  1.0000
  C   C1379     1.0  0.582007017283006  0.5853681620617032  0.9729487267952383  1.0000
  C   C1380     1.0  0.5860212226943483  0.5595025316485502  0.9637078057133291  1.0000
  C   C1381     1.0  0.5645124863987403  0.542995961747547  0.9628919726517314  1.0000
  C   C1382     1.0  0.5403327253437002  0.5520579139817557  0.969665387743523  1.0000
  H   H1073     1.0  0.5547315430946801  0.6146192555267911  0.987037963700973  1.0000
  H   H1074     1.0  0.5980985614658879  0.5989254235028916  0.97306876762719  1.0000
  H   H1075     1.0  0.5655100451088589  0.5225984682015541  0.9555339142487682  1.0000
  H   H1076     1.0  0.5233922261301859  0.5389580650615167  0.9678558833507701  1.0000
  C   C1383     1.0  0.6145225773951781  0.5137894549703617  0.9923575509391275  1.0000
  C   C1384     1.0  0.6223732954337127  0.5216767397907546  0.9642057528680914  1.0000
  C   C1385     1.0  0.640874793034771  0.5059414500847476  0.949691927093787  1.0000
  C   C1386     1.0  0.6499914869658753  0.9827703052272857  0.9624273701725111  1.0000
  C   C1387     1.0  0.6420299972899662  0.9755644873949952  0.990808135015603  1.0000
  C   C1388     1.0  0.62382060320669  0.9909002628351641  0.004706195781563061  1.0000
  C   C1389     1.0  0.6141079059382311  0.5496182863521002  0.9515992425347967  1.0000
  C   C1390     1.0  0.6395042002618242  0.565382123530788  0.961420360971139  1.0000
  C   C1391     1.0  0.659372095973327  0.5694472729734517  0.9414469003214029  1.0000
  C   C1392     1.0  0.6805958570381654  0.5841254578455881  0.9492917909872814  1.0000
  C   C1393     1.0  0.6837769741789913  0.5937507939623283  0.9777347992247185  1.0000
  C   C1394     1.0  0.6655130027864908  0.5875019816252317  0.9988975533021239  1.0000
  C   C1395     1.0  0.6435559881812267  0.5731937886724218  0.9905925061137643  1.0000
  C   C1396     1.0  0.5979508204393605  0.5292650623331364  0.8999372252281894  1.0000
  C   C1397     1.0  0.5890423944199851  0.5328319607759692  0.8711274255597886  1.0000
  C   C1398     1.0  0.5862019693161294  0.5580758091933274  0.8596724180218821  1.0000
  C   C1399     1.0  0.5969236396866227  0.5786188586822797  0.8753910980724423  1.0000
  C   C1400     1.0  0.6072675969832013  0.5748318898149529  0.9032494629987076  1.0000
  C   C1401     1.0  0.6068087503907221  0.550580514655961  0.9161960890225321  1.0000
  C   C1402     1.0  0.5683818109924457  0.564297828945187  0.8307492464566382  1.0000
  C   C1403     1.0  0.6303491155468368  0.5737231710076338  0.764666768467244  1.0000
  C   C1404     1.0  0.6202175805588754  0.5493893833967962  0.7708799930099276  1.0000
  C   C1405     1.0  0.601033866903176  0.5469608583256382  0.792373970864385  1.0000
  C   C1406     1.0  0.5913643001449544  0.5684277748713965  0.8074124195338858  1.0000
  C   C1407     1.0  0.6034713451543494  0.5924351687034686  0.8023462518298514  1.0000
  C   C1408     1.0  0.6217488053932947  0.595238014052803  0.7807389020785507  1.0000
  C   C1409     1.0  0.5489570015065898  0.5892686999219429  0.8370736199177956  1.0000
  C   C1410     1.0  0.5381928181691862  0.5944018521135321  0.865134275875683  1.0000
  C   C1411     1.0  0.5192251891877698  0.6130832220744581  0.868230884744362  1.0000
  C   C1412     1.0  0.510033424650716  0.6277361436526405  0.8444116715154337  1.0000
  C   C1413     1.0  0.5213071505214322  0.6240196822703525  0.8175069643096734  1.0000
  C   C1414     1.0  0.5398896028577651  0.6049042474889571  0.8131477037271322  1.0000
  C   C1415     1.0  0.5377830296609966  0.5397930685131394  0.7930742090507698  1.0000
  C   C1416     1.0  0.5188354072465924  0.5222569477063854  0.7850159124614214  1.0000
  C   C1417     1.0  0.50619916078694  0.5074129375629182  0.8057807534106907  1.0000
  C   C1418     1.0  0.5135344643308053  0.5117240258518888  0.8353552576381912  1.0000
  C   C1419     1.0  0.5323575309503851  0.5301655403285057  0.8438270282042617  1.0000
  C   C1420     1.0  0.5465149838775001  0.5431398886789994  0.8220840767724232  1.0000
  H   H1077     1.0  0.6026465146551941  0.5266798975679643  0.00620892915932858  1.0000
  H   H1078     1.0  0.6486741533818636  0.51131126339071  0.9283668955954099  1.0000
  H   H1079     1.0  0.6648458963361091  0.9714183674724276  0.951814871436636  1.0000
  H   H1080     1.0  0.6169359927347028  0.9849143836400401  0.02702341425069031  1.0000
  H   H1081     1.0  0.6578689233559771  0.56197128390668  0.9190570621840469  1.0000
  H   H1082     1.0  0.6945283463020361  0.5897242800357761  0.9322882294391641  1.0000
  H   H1083     1.0  0.6681086820422568  0.5935905598734112  0.022153713374950187  1.0000
  H   H1084     1.0  0.6303600411617137  0.5678874452099866  0.008774246197703171  1.0000
  H   H1085     1.0  0.5978851044544782  0.5089032348863658  0.9086268476744686  1.0000
  H   H1086     1.0  0.5826911149799125  0.5156171895670112  0.8588588079386541  1.0000
  H   H1087     1.0  0.5956678180219426  0.5980848452798027  0.8658189532134815  1.0000
  H   H1088     1.0  0.6144610800292487  0.5917889670472413  0.9148756398710638  1.0000
  H   H1089     1.0  0.6275121494315008  0.5322861162168704  0.7581000903638138  1.0000
  H   H1090     1.0  0.593333931598599  0.5276166220236934  0.7966398663554081  1.0000
  H   H1091     1.0  0.5960352978806419  0.6099634033082492  0.8129231829118152  1.0000
  H   H1092     1.0  0.627747997724859  0.6150082237706604  0.7758305658387493  1.0000
  H   H1093     1.0  0.5424633333203747  0.5819602232639918  0.8840429298864405  1.0000
  H   H1094     1.0  0.5118707025420176  0.6166209981977215  0.8903939790880314  1.0000
  H   H1095     1.0  0.5141238003398242  0.6347081717380163  0.7980425657065472  1.0000
  H   H1096     1.0  0.54575490803434  0.6008996498853822  0.7904844392503309  1.0000
  H   H1097     1.0  0.5462312167352421  0.5510440979238093  0.7757416467039702  1.0000
  H   H1098     1.0  0.5127491096676801  0.5208318993164873  0.7619013833756166  1.0000
  H   H1099     1.0  0.5034391179492441  0.5011462129730829  0.8525322114991273  1.0000
  H   H1100     1.0  0.5361886266718876  0.5340644084670519  0.8675350925147164  1.0000
  C   C1421     1.0  0.7785576705799545  0.6807225453284762  0.7345209587987886  1.0000
  C   C1422     1.0  0.8012814036343974  0.6658949389687214  0.7303728811613475  1.0000
  C   C1423     1.0  0.7992042378214012  0.6411177770554256  0.7184532711442208  1.0000
  C   C1424     1.0  0.7745987087962379  0.6316280535203428  0.7089544845714524  1.0000
  C   C1425     1.0  0.7533562327621435  0.6486279305997943  0.7109262663851771  1.0000
  C   C1426     1.0  0.7549449012388588  0.6719216424931425  0.7247554148216833  1.0000
  H   H1101     1.0  0.8204838117214561  0.6725205498247445  0.737230769431179  1.0000
  H   H1102     1.0  0.8160191356179068  0.62924586006739  0.7158190417763923  1.0000
  H   H1103     1.0  0.7336374493837554  0.6434520790332069  0.7018809673997817  1.0000
  H   H1104     1.0  0.7375937443480056  0.6845469579565744  0.7269161497968134  1.0000
  C   C1427     1.0  0.7358639507344178  0.5930876246601063  0.7320601217437792  1.0000
  C   C1428     1.0  0.7441403491538641  0.5894308022241116  0.7026901315262708  1.0000
  C   C1429     1.0  0.7284059727502669  0.5741894308951118  0.6841171472493041  1.0000
  C   C1430     1.0  0.7052438111292701  0.5638861396839501  0.6938849142047789  1.0000
  C   C1431     1.0  0.6970877069820062  0.5686697280860669  0.7226769300462237  1.0000
  C   C1432     1.0  0.7127883322736267  0.582527273038707  0.7423702954214061  1.0000
  C   C1433     1.0  0.7705695832113254  0.6030743597906515  0.6932647032396954  1.0000
  C   C1434     1.0  0.7905892397085188  0.5806088131071898  0.7038794249539402  1.0000
  C   C1435     1.0  0.7978166662142702  0.5616229826498952  0.6829589755188076  1.0000
  C   C1436     1.0  0.8145497892830355  0.5409685269145112  0.6911350899617378  1.0000
  C   C1437     1.0  0.8233599663978595  0.5376999167384034  0.7197381526417773  1.0000
  C   C1438     1.0  0.8158026940711391  0.5564591013317209  0.7405963586825648  1.0000
  C   C1439     1.0  0.7992310785206026  0.5771078726105484  0.7326825556872323  1.0000
  C   C1440     1.0  0.7544572189510365  0.618759242080439  0.6408668800927916  1.0000
  C   C1441     1.0  0.7587289288024702  0.6315717611331668  0.6145490391765726  1.0000
  C   C1442     1.0  0.7838327935177346  0.6381784565866155  0.6061617417885422  1.0000
  C   C1443     1.0  0.8045541037434932  0.6311284216501745  0.6247325030871392  1.0000
  C   C1444     1.0  0.8006014545801964  0.6180550728667475  0.6511370401597676  1.0000
  C   C1445     1.0  0.7753959676444159  0.6125604916016947  0.6600422915078861  1.0000
  C   C1446     1.0  0.7902669349970027  0.6537875152349554  0.5757069381267297  1.0000
  C   C1447     1.0  0.8118762298070602  0.5843286953547966  0.5230112358783162  1.0000
  C   C1448     1.0  0.7856089704110837  0.5905893974331328  0.5278062002212744  1.0000
  C   C1449     1.0  0.7792361581387678  0.6127386895285672  0.5432492309540199  1.0000
  C   C1450     1.0  0.7983379057086568  0.6287105652898374  0.5558335115036198  1.0000
  C   C1451     1.0  0.8246901883533153  0.6209647442716971  0.5526746592405954  1.0000
  C   C1452     1.0  0.831154844517202  0.598874540171994  0.5365336132998348  1.0000
  C   C1453     1.0  0.8110179425487981  0.6769570519619025  0.5811265593915105  1.0000
  C   C1454     1.0  0.8097638915468662  0.6931633286686463  0.6064840736521161  1.0000
  C   C1455     1.0  0.8260919466696316  0.7143017090393735  0.6101297581780557  1.0000
  C   C1456     1.0  0.8441348668531865  0.7206252924306458  0.588489063751213  1.0000
  C   C1457     1.0  0.8453602110050666  0.7046689605221114  0.5634916719864626  1.0000
  C   C1458     1.0  0.8277244586436224  0.6844750521091197  0.5590301543989254  1.0000
  C   C1459     1.0  0.7667967833649997  0.6729694217745414  0.5292466902046946  1.0000
  C   C1460     1.0  0.7474374487816553  0.6877810392808342  0.5153797511359073  1.0000
  C   C1461     1.0  0.7290572286433643  0.7011346831564306  0.5313763034826519  1.0000
  C   C1462     1.0  0.7304814760553765  0.7000719586031313  0.5620267292409783  1.0000
  C   C1463     1.0  0.7491912098474622  0.6850132810599809  0.5764671967290903  1.0000
  C   C1464     1.0  0.7676015611103137  0.6702806615413368  0.5600127108382336  1.0000
  H   H1105     1.0  0.7471031607490326  0.6056157291652919  0.7473675507959867  1.0000
  H   H1106     1.0  0.7345299568986405  0.569435910964359  0.6620607558673696  1.0000
  H   H1107     1.0  0.6949323566667918  0.5521609840651297  0.6772414751525168  1.0000
  H   H1108     1.0  0.7070582824516907  0.5853974462672988  0.7644689233923607  1.0000
  H   H1109     1.0  0.7917836621363656  0.5623223302022071  0.6599200276975649  1.0000
  H   H1110     1.0  0.821562462549559  0.528105111698068  0.6731534179310518  1.0000
  H   H1111     1.0  0.8227765043748305  0.5556345095762807  0.7627839057882982  1.0000
  H   H1112     1.0  0.7942856305743254  0.5910152850014445  0.7498372797644739  1.0000
  H   H1113     1.0  0.734213471987749  0.6159054714052311  0.6466755225722305  1.0000
  H   H1114     1.0  0.7418037382835007  0.6368197391976735  0.6004108967467093  1.0000
  H   H1115     1.0  0.8244389128098155  0.6359959837066052  0.6195485175295227  1.0000
  H   H1116     1.0  0.8176807778626285  0.6140548429204277  0.6651684796278962  1.0000
  H   H1117     1.0  0.769913197308689  0.5786131369365999  0.519241064563686  1.0000
  H   H1118     1.0  0.7595236415161698  0.6186390870897448  0.5466992933834457  1.0000
  H   H1119     1.0  0.8402169382518726  0.6328069189225971  0.5639140378766628  1.0000
  H   H1120     1.0  0.8511715413296794  0.5932994466323596  0.5336170656790832  1.0000
  H   H1121     1.0  0.795728571785316  0.6906160935175918  0.624118961057164  1.0000
  H   H1122     1.0  0.8242228641116011  0.7269830944108149  0.6297475422886758  1.0000
  H   H1123     1.0  0.8583906566005218  0.7111406923829847  0.5458612305381533  1.0000
  H   H1124     1.0  0.8280310159451685  0.673757207262412  0.5378607313864116  1.0000
  H   H1125     1.0  0.7817116635719488  0.6631552635616492  0.5156709613023085  1.0000
  H   H1126     1.0  0.7458316544876282  0.6877713768356872  0.4912426520001437  1.0000
  H   H1127     1.0  0.7166439492534092  0.7116700740544166  0.5749533484594775  1.0000
  H   H1128     1.0  0.750871049053521  0.6860911266481473  0.6007021069131105  1.0000
  C   C1465     1.0  0.9142443315744612  0.9248347206775359  0.46105460574266827  1.0000
  C   C1466     1.0  0.895659023229389  0.9057331961027381  0.4546079684711897  1.0000
  C   C1467     1.0  0.8713142513535785  0.9129334655883836  0.4428862035289462  1.0000
  C   C1468     1.0  0.8649126240659748  0.9394260348206596  0.43789561708947394  1.0000
  C   C1469     1.0  0.8841376294071158  0.9575357158790445  0.44431557862051885  1.0000
  C   C1470     1.0  0.9078271811472486  0.9509764076052564  0.45625964139970987  1.0000
  H   H1129     1.0  0.9003905766114636  0.8853833479564244  0.45826032193223776  1.0000
  H   H1130     1.0  0.8571294531430608  0.8978516094406752  0.4372842980378682  1.0000
  H   H1131     1.0  0.880362795692315  0.9785878730537315  0.44091219873685195  1.0000
  H   H1132     1.0  0.9210737401130835  0.966675321727358  0.461030152980604  1.0000
  C   C1471     1.0  0.8281917839975587  0.9791526411385593  0.46795250762315027  1.0000
  C   C1472     1.0  0.827362194437714  0.9763079919459349  0.4368797159746237  1.0000
  C   C1473     1.0  0.8164864082369013  0.997053447603409  0.42030296627344593  1.0000
  C   C1474     1.0  0.8125205238369103  0.5212985925326774  0.43322958549194523  1.0000
  C   C1475     1.0  0.814801128381985  0.5246749516634192  0.4638666733800546  1.0000
  C   C1476     1.0  0.8220951014797618  0.5028020462037134  0.4810102825654487  1.0000
  C   C1477     1.0  0.8381465901670333  0.9493286545084751  0.4215967396844806  1.0000
  C   C1478     1.0  0.812552074441486  0.9309691706968417  0.42499122765466946  1.0000
  C   C1479     1.0  0.7924787669618435  0.9302922515566597  0.40308599880185925  1.0000
  C   C1480     1.0  0.7705644206596305  0.9149085102143185  0.4071162585857181  1.0000
  C   C1481     1.0  0.7676564429990946  0.9015683657293556  0.43294504426065233  1.0000
  C   C1482     1.0  0.7864483018205456  0.9035738754180943  0.4546035225144508  1.0000
  C   C1483     1.0  0.8080713579675572  0.9182529422493758  0.45122904134958725  1.0000
  C   C1484     1.0  0.8606816991069237  0.9716149139872311  0.37637469071424323  1.0000
  C   C1485     1.0  0.8735698348807827  0.969786714320165  0.34957224051347885  1.0000
  C   C1486     1.0  0.8767970442921402  0.9458734114617307  0.33527848959775225  1.0000
  C   C1487     1.0  0.8625479572841138  0.9246549653979977  0.34562200795092113  1.0000
  C   C1488     1.0  0.8489756542577801  0.9265448522102121  0.3720354369370274  1.0000
  C   C1489     1.0  0.8479808156650399  0.9496485864382327  0.3879408471706236  1.0000
  C   C1490     1.0  0.8942647035290152  0.9430035580580978  0.3058329181156816  1.0000
  C   C1491     1.0  0.8380777262380559  0.9571868318436729  0.23321488372002983  1.0000
  C   C1492     1.0  0.8460021781663448  0.9773574509424636  0.25178564501862705  1.0000
  C   C1493     1.0  0.8619775295844252  0.9725083452336167  0.27561152718266396  1.0000
  C   C1494     1.0  0.8715836965289505  0.9473226672394212  0.2818692112927372  1.0000
  C   C1495     1.0  0.8630222402664836  0.9268987496667594  0.2641943102770385  1.0000
  C   C1496     1.0  0.8465613719985103  0.9315802096019615  0.23993717030932338  1.0000
  C   C1497     1.0  0.9123337030258777  0.9168856347981044  0.30261182245831175  1.0000
  C   C1498     1.0  0.9212233406539754  0.9030057277411205  0.3278292890816402  1.0000
  C   C1499     1.0  0.938402807825299  0.8820792424751037  0.3255173915773859  1.0000
  C   C1500     1.0  0.9489613607584821  0.8757027622706863  0.2985860086311919  1.0000
  C   C1501     1.0  0.9415596547285412  0.8892653805435786  0.27356638708274666  1.0000
  C   C1502     1.0  0.9234066083349407  0.9097229808491509  0.27570711525255137  1.0000
  C   C1503     1.0  0.9241903596611167  0.9734768455112317  0.2747267817916128  1.0000
  C   C1504     1.0  0.9450400438129155  0.989597294400492  0.2711522325734964  1.0000
  C   C1505     1.0  0.9609299178704126  0.9953579612630759  0.29521597342306727  1.0000
  C   C1506     1.0  0.9551743595798639  0.9852512978018173  0.3229165068850997  1.0000
  C   C1507     1.0  0.9337190226117593  0.969950154349216  0.3268511785990711  1.0000
  C   C1508     1.0  0.9171574313701951  0.9639128195240267  0.3027652079658056  1.0000
  H   H1133     1.0  0.8357961961452577  0.9630192834645936  0.481297046775111  1.0000
  H   H1134     1.0  0.8137284005868121  0.9943227980551602  0.3966104628115775  1.0000
  H   H1135     1.0  0.8056760274212219  0.5379427029185022  0.4193448625962021  1.0000
  H   H1136     1.0  0.8243586524574312  0.504124017287763  0.5047472455947066  1.0000
  H   H1137     1.0  0.792944202632713  0.9418433777063899  0.3829947202985409  1.0000
  H   H1138     1.0  0.7552738326118297  0.9135716458186908  0.3902038391507495  1.0000
  H   H1139     1.0  0.7851128310158877  0.8942830225256676  0.47625533183314084  1.0000
  H   H1140     1.0  0.822377099681768  0.9198105323576571  0.46900842234865114  1.0000
  H   H1141     1.0  0.8598048836205975  0.9900871837545218  0.38758072467476856  1.0000
  H   H1142     1.0  0.8829662368668315  0.9870975862412485  0.34126497034674935  1.0000
  H   H1143     1.0  0.8629869050754123  0.9062744432252948  0.3336334856043405  1.0000
  H   H1144     1.0  0.8406520712860671  0.9087299763235324  0.38128747291078385  1.0000
  H   H1145     1.0  0.8386015264832226  0.9971997281200002  0.2466661258337253  1.0000
  H   H1146     1.0  0.8682862354557044  0.9894221022966398  0.28837809195856096  1.0000
  H   H1147     1.0  0.8701566145602709  0.9066986358717936  0.26824457686622266  1.0000
  H   H1148     1.0  0.8411728005845646  0.9154635483929813  0.22590350786282537  1.0000
  H   H1149     1.0  0.9160589354333968  0.9086445312864523  0.35004351192780764  1.0000
  H   H1150     1.0  0.9436221613152993  0.8713674730881137  0.34554198072961995  1.0000
  H   H1151     1.0  0.9507101160214867  0.8836268452592858  0.2529260329221679  1.0000
  H   H1152     1.0  0.9185696419382274  0.9210572419475901  0.2562316017575778  1.0000
  H   H1153     1.0  0.9120328790915895  0.9686482297093139  0.2550734300270811  1.0000
  H   H1154     1.0  0.9496406012928046  0.9979365240195056  0.2496538087623002  1.0000
  H   H1155     1.0  0.965255527897161  0.9913526844020469  0.34319896152819296  1.0000
  H   H1156     1.0  0.9300940139130749  0.9626329637868517  0.3490209418778489  1.0000
  C   C1509     1.0  0.7050165239350382  0.8462018972425457  0.2640542626397615  1.0000
  C   C1510     1.0  0.6852281734825298  0.8640931252394384  0.2581389171985876  1.0000
  C   C1511     1.0  0.6856705574941403  0.8795366306591342  0.23315486330405405  1.0000
  C   C1512     1.0  0.7070218464323991  0.8793283945032342  0.2143809217824868  1.0000
  C   C1513     1.0  0.7248203810618954  0.8584739228928  0.21882065418200294  1.0000
  C   C1514     1.0  0.7239692698433375  0.8425934302871628  0.24320494851245217  1.0000
  H   H1157     1.0  0.669075657051373  0.8678259253566803  0.2729328382474462  1.0000
  H   H1158     1.0  0.6691794033003741  0.8930559282010256  0.2292513132872553  1.0000
  H   H1159     1.0  0.7407019495383228  0.8565810608060984  0.20369706544095126  1.0000
  H   H1160     1.0  0.7390236196088835  0.8272004897284138  0.2464038143861272  1.0000
  C   C1515     1.0  0.7564076905882676  0.9099943041973293  0.20962574875234205  1.0000
  C   C1516     1.0  0.7391050561941759  0.9105765209335  0.1853875041007674  1.0000
  C   C1517     1.0  0.7481702402952712  0.9213639820666484  0.15899563800484506  1.0000
  C   C1518     1.0  0.7733064932965706  0.9314718625985358  0.1572014721628415  1.0000
  C   C1519     1.0  0.7898963484540403  0.9297680199120405  0.1815668711771501  1.0000
  C   C1520     1.0  0.7810657778524842  0.9196122518200657  0.2078340281865449  1.0000
  C   C1521     1.0  0.7098796136946303  0.9005905999686352  0.18905564070823871  1.0000
  C   C1522     1.0  0.6965686912768311  0.9285865055085052  0.19709526427928328  1.0000
  C   C1523     1.0  0.6824451031424  0.9423437559218392  0.17584959310869644  1.0000
  C   C1524     1.0  0.6677894620952822  0.9645556499221812  0.18300513818220066  1.0000
  C   C1525     1.0  0.6683384450678038  0.9739320840031788  0.21220618204362907  1.0000
  C   C1526     1.0  0.6837906018453512  0.9614579894195019  0.23320599180655194  1.0000
  C   C1527     1.0  0.6977737005007106  0.9390017426050635  0.22570566278794205  1.0000
  C   C1528     1.0  0.7121290737610506  0.8713161750566347  0.14078166473454867  1.0000
  C   C1529     1.0  0.7009222185900897  0.8594422170473526  0.11599678970192003  1.0000
  C   C1530     1.0  0.6740370428120489  0.8557283124434879  0.11353195128584577  1.0000
  C   C1531     1.0  0.6583704812796087  0.8694948773882646  0.13380129035655908  1.0000
  C   C1532     1.0  0.6693221684367359  0.8826759559072838  0.15740198481176815  1.0000
  C   C1533     1.0  0.69687633581983  0.884980052990121  0.16106189639927243  1.0000
  C   C1534     1.0  0.6595255677295667  0.8387791761002711  0.08776185223986566  1.0000
  C   C1535     1.0  0.6407194010530927  0.9034263195744101  0.026633948440358223  1.0000
  C   C1536     1.0  0.6655172114282634  0.8929509534375539  0.028922726969570062  1.0000
  C   C1537     1.0  0.6709352184446438  0.8723968229622807  0.04742946649112636  1.0000
  C   C1538     1.0  0.6520467120515431  0.862133828436439  0.06502567407254553  1.0000
  C   C1539     1.0  0.6273954519558207  0.8737255593095089  0.06428453308416245  1.0000
  C   C1540     1.0  0.6218486487651925  0.8939262768156958  0.04482858179884018  1.0000
  C   C1541     1.0  0.6355294723387195  0.8220119408786579  0.09917039952985018  1.0000
  C   C1542     1.0  0.6362267060273816  0.8114081747531253  0.12756139007344175  1.0000
  C   C1543     1.0  0.6166589957485441  0.7951670508977317  0.1376188111104591  1.0000
  C   C1544     1.0  0.5974511212575678  0.786524904735045  0.11779495690498867  1.0000
  C   C1545     1.0  0.597290685891164  0.7950489853227326  0.08855123185886637  1.0000
  C   C1546     1.0  0.6160554039918122  0.8128608384327319  0.07953505389011124  1.0000
  C   C1547     1.0  0.6752912083143625  0.8091048692083431  0.04329583821308692  1.0000
  C   C1548     1.0  0.6893179187550219  0.7880058454175057  0.03228298107286901  1.0000
  C   C1549     1.0  0.7056562695751255  0.7736307962920674  0.05015661635479873  1.0000
  C   C1550     1.0  0.7078077033063224  0.7795256004087832  0.08019194399829122  1.0000
  C   C1551     1.0  0.6934438180001755  0.7998409344036074  0.09136063192220933  1.0000
  C   C1552     1.0  0.6773306095958787  0.8159662727438796  0.07346921281332382  1.0000
  H   H1161     1.0  0.7500653812157524  0.9045832326293884  0.23171659629900349  1.0000
  H   H1162     1.0  0.7355253332998101  0.9235301783214193  0.13966684108225674  1.0000
  H   H1163     1.0  0.7799197653172958  0.9414080222835861  0.13787978877103554  1.0000
  H   H1164     1.0  0.792928733112049  0.9197297581745127  0.22815093899436498  1.0000
  H   H1165     1.0  0.6817667610238075  0.935377078110126  0.15306028575834585  1.0000
  H   H1166     1.0  0.654534512781934  0.9735593208104392  0.1661885291149565  1.0000
  H   H1167     1.0  0.6854539423959835  0.9682543873505236  0.2564005481136579  1.0000
  H   H1168     1.0  0.7099008216561535  0.9307990378571874  0.24274034603323183  1.0000
  H   H1169     1.0  0.7334333197021266  0.8699605191765039  0.142182808000829  1.0000
  H   H1170     1.0  0.7133960931838204  0.8504996035943831  0.09964055945499421  1.0000
  H   H1171     1.0  0.6374519298654634  0.8685905246015807  0.13191064725332027  1.0000
  H   H1172     1.0  0.6557134742663  0.8929002321023488  0.17212921650954247  1.0000
  H   H1173     1.0  0.6824331322319577  0.9009632534388676  0.017218568016012716  1.0000
  H   H1174     1.0  0.6909210401336568  0.8655197619032002  0.04841157833476057  1.0000
  H   H1175     1.0  0.6126277512529702  0.8678235815380232  0.08010769311808809  1.0000
  H   H1176     1.0  0.6023432261503199  0.9034672247853556  0.04455471086372082  1.0000
  H   H1177     1.0  0.6530211015103946  0.8141435196290011  0.14240866260316767  1.0000
  H   H1178     1.0  0.6177207323349958  0.7877474883233263  0.15987949420454847  1.0000
  H   H1179     1.0  0.5820377521474692  0.7885987644025441  0.07299994207952756  1.0000
  H   H1180     1.0  0.6178014961631836  0.8177102804818961  0.05679843112711723  1.0000
  H   H1181     1.0  0.6614370840869034  0.8188074838607877  0.0283827655236245  1.0000
  H   H1182     1.0  0.6869203368000479  0.7817755803621291  0.009167713369100383  1.0000
  H   H1183     1.0  0.7200399788236486  0.7677246908889774  0.0950454408674517  1.0000
  H   H1184     1.0  0.694847082921262  0.8033045939281429  0.11507136380670746  1.0000
  C   C1553     1.0  0.8169536175064451  0.9435926428587949  0.1809508838709685  1.0000
  C   C1554     1.0  0.8213546512418937  0.9642066232883769  0.20625793652258687  1.0000
  H   H1185     1.0  0.8341182566180424  0.9292432802236378  0.17975314312549517  1.0000
  H   H1186     1.0  0.8177579459422014  0.9540309548432934  0.15971210393332694  1.0000
  H   H1187     1.0  0.801211008363847  0.9713776847582491  0.21371669584568756  1.0000
  H   H1188     1.0  0.8293500623786134  0.9812336319684357  0.19559853294311552  1.0000
  C   C1555     1.0  0.8208050713810902  0.5587912801478611  0.5075148536647034  1.0000
  C   C1556     1.0  0.8079142561153851  0.5520165866511503  0.47728679379657746  1.0000
  H   H1189     1.0  0.8427363103995053  0.5596440173170627  0.5039714261437597  1.0000
  H   H1190     1.0  0.8189366446550594  0.5422270798644353  0.5228245056952802  1.0000
  H   H1191     1.0  0.8125164120753052  0.567246329396723  0.4613858295197201  1.0000
  H   H1192     1.0  0.7859214825416416  0.5536761883847593  0.47822044471175706  1.0000
  C   C1557     1.0  0.6525550667156828  0.9506389761783767  0.006949180956363765  1.0000
  C   C1558     1.0  0.6347861192100879  0.92599676541563  0.004219363518648267  1.0000
  H   H1193     1.0  0.6733197937824146  0.9464033520599993  0.9999245693088217  1.0000
  H   H1194     1.0  0.6553269040393489  0.9546488152775754  0.030596851979621958  1.0000
  H   H1195     1.0  0.6346480910569849  0.9175695159222452  0.9817739509220552  1.0000
  H   H1196     1.0  0.6139137923795607  0.9318727856180397  0.007900615698499314  1.0000
  C   C1559     1.0  0.6726197178066761  0.5570002308869478  0.7365861057040313  1.0000
  C   C1560     1.0  0.6485224236131836  0.5763812897913696  0.7382622313946156  1.0000
  H   H1197     1.0  0.6665749424561566  0.5387711428877114  0.7255779168183891  1.0000
  H   H1198     1.0  0.677976598444564  0.5500539948906793  0.7594938978014748  1.0000
  H   H1199     1.0  0.6368204611643546  0.5784352832189665  0.7169283079827605  1.0000
  H   H1200     1.0  0.6576504669997404  0.5965541928324282  0.7410009407458091  1.0000
  C   C1561     1.0  0.7504316913299575  0.7610677373257446  0.03098787387481267  1.0000
  C   C1562     1.0  0.7222238507549389  0.7514619087652568  0.03686231651398826  1.0000
  H   H1201     1.0  0.7488150241276913  0.7776456192826621  0.01564078688849388  1.0000
  H   H1202     1.0  0.7598730807698373  0.7706013767718677  0.05043915690555906  1.0000
  H   H1203     1.0  0.7138345250762294  0.7430184772696332  0.016328643085360642  1.0000
  H   H1204     1.0  0.7227902807197969  0.7349355669126939  0.05375961969604439  1.0000
  C   C1563     1.0  0.7788644160137191  0.707893651594283  0.7493371096313419  1.0000
  C   C1564     1.0  0.8048620223961677  0.721416745129438  0.7574398657880794  1.0000
  H   H1205     1.0  0.767881290430781  0.7215269778109028  0.7352545416607154  1.0000
  H   H1206     1.0  0.7679839992569942  0.7072791797655444  0.770399829682121  1.0000
  H   H1207     1.0  0.8005322101632488  0.7427202042850576  0.763675320114458  1.0000
  H   H1208     1.0  0.8182389568873809  0.7227302455971609  0.7383022450052662  1.0000
  C   C1565     1.0  0.7081358468507649  0.6099655651344055  0.9851239793248546  1.0000
  C   C1566     1.0  0.7354254695555748  0.5970743159706573  0.9819540121699829  1.0000
  H   H1209     1.0  0.7077751639098196  0.627698932035772  0.9717772171945247  1.0000
  H   H1210     1.0  0.7059001791354796  0.6174068882743868  0.008242954367398525  1.0000
  H   H1211     1.0  0.7357430154591171  0.5857162611934773  0.9618071592074277  1.0000
  H   H1212     1.0  0.7385788787801071  0.5819709435928165  0.00014686714576939153  1.0000
  C   C1567     1.0  0.9661810334205978  0.6402839265384996  0.871494216990752  1.0000
  C   C1568     1.0  0.9867993742313754  0.6476674358242381  0.8476527739781288  1.0000
  H   H1213     1.0  0.9748747428199609  0.6405212693732016  0.8941997180565734  1.0000
  H   H1214     1.0  0.9593407564377749  0.6194069774699333  0.8687177170072774  1.0000
  H   H1215     1.0  0.9942370383792108  0.6674499647846918  0.8530012599350866  1.0000
  H   H1216     1.0  0.9761888260198626  0.6488586207075628  0.8263499722634462  1.0000
  C   C1569     1.0  0.5061120357541664  0.5013504920307098  0.2717924503439053  1.0000
  C   C1570     1.0  0.9835015115936541  0.5144279900456203  0.2896073989968809  1.0000
  H   H1217     1.0  0.9976772475752896  0.9888033961370164  0.2536573928057253  1.0000
  H   H1218     1.0  0.5180088936955393  0.9876764877061951  0.28556824729954416  1.0000
  H   H1219     1.0  0.9754115023512278  0.5315161068589812  0.27874814966199374  1.0000
  H   H1220     1.0  0.9910501669669168  0.5223776604727244  0.31151485082806063  1.0000
  C   C1571     1.0  0.9087453773332482  0.6735852740476485  0.08382251227131837  1.0000
  C   C1572     1.0  0.91422721897414  0.665558332105626  0.05090153640640993  1.0000
  H   H1221     1.0  0.9017067658203901  0.6936423475012422  0.08549174672895743  1.0000
  H   H1222     1.0  0.894076014196804  0.6602477189007223  0.09344511873926638  1.0000
  H   H1223     1.0  0.9206462473961669  0.6445929982515168  0.04981205470753004  1.0000
  H   H1224     1.0  0.9310059562075298  0.6765680406309331  0.04292837988861264  1.0000
  C   C1573     1.0  0.5876138428513392  0.7420799639645363  0.14277945539519618  1.0000
  C   C1574     1.0  0.576379809209428  0.7674978171301261  0.12774989863917321  1.0000
  H   H1225     1.0  0.5901640613637676  0.7460794716615369  0.1671108428404518  1.0000
  H   H1226     1.0  0.6077585784793915  0.7371813933922692  0.13496613102216415  1.0000
  H   H1227     1.0  0.5637706188153204  0.7609967981171368  0.10933118906104819  1.0000
  H   H1228     1.0  0.5618211913896495  0.7774511308828743  0.1429006077163326  1.0000
  C   C1575     1.0  0.6505720818965732  0.9978068771355895  0.21872395462293084  1.0000
  C   C1576     1.0  0.6603031171879015  0.5234679088611524  0.20413921583863986  1.0000
  H   H1229     1.0  0.6305607302970629  0.9933322882697204  0.2122215205943784  1.0000
  H   H1230     1.0  0.6503067927801562  0.500972741762585  0.2433805638036407  1.0000
  H   H1231     1.0  0.6638327280578771  0.5188901361894752  0.18056208495414725  1.0000
  H   H1232     1.0  0.6798595846302226  0.5306866300628469  0.212363124316514  1.0000
  C   C1577     1.0  0.5072362229966566  0.5853369883541305  0.98671118588066  1.0000
  C   C1578     1.0  0.5018004151269138  0.6140163006814017  0.9973748131190333  1.0000
  H   H1233     1.0  0.995263882703574  0.5830297381470726  0.966339812102788  1.0000
  H   H1234     1.0  0.9996731373053483  0.5712807710404232  0.0023698455152445508  1.0000
  H   H1235     1.0  0.9808491848582777  0.6181704393985364  0.9950406858310844  1.0000
  H   H1236     1.0  0.5099780598448682  0.6273707443378944  0.9801978592580973  1.0000
  C   C1579     1.0  0.707626851934982  0.7168461925616779  0.5152552643472166  1.0000
  C   C1580     1.0  0.7173113204635924  0.7450696015107144  0.5103246983237203  1.0000
  H   H1237     1.0  0.7024346595755709  0.7074494540430338  0.49344340058592434  1.0000
  H   H1238     1.0  0.6892036543022602  0.7176396729616739  0.5286287022179803  1.0000
  H   H1239     1.0  0.735320507646583  0.7462826050425239  0.4967734221833985  1.0000
  H   H1240     1.0  0.7234017470708878  0.7543954468383787  0.5321943595226188  1.0000
  C   C1581     1.0  0.5454883435175957  0.6962940299533986  0.2953048925578462  1.0000
  C   C1582     1.0  0.5706918202876414  0.6800319858158347  0.2991439762019302  1.0000
  H   H1241     1.0  0.5286095709570126  0.6867192960024875  0.30697108304085297  1.0000
  H   H1242     1.0  0.5392234498212356  0.6959626206305701  0.2718391328896643  1.0000
  H   H1243     1.0  0.5729326552617265  0.6755053915192957  0.322894277101405  1.0000
  H   H1244     1.0  0.5881525103025297  0.6913886836079989  0.2935998681484586  1.0000
  C   C1583     1.0  0.9973380650173678  0.8668527077654752  0.2952048585312198  1.0000
  C   C1584     1.0  0.9693259468679425  0.8541936574576081  0.29631857069432704  1.0000
  H   H1245     1.0  0.5011525249427095  0.8739088667929503  0.2724682357682258  1.0000
  H   H1246     1.0  0.9963374570942508  0.8849321715126253  0.3090051082489229  1.0000
  H   H1247     1.0  0.9665707910676836  0.8413508535101998  0.31599637522092294  1.0000
  H   H1248     1.0  0.9651869542811464  0.8410405773146529  0.277823390660292  1.0000
  C   C1585     1.0  0.7173699389828906  0.8947250454871004  0.4399896627135197  1.0000
  C   C1586     1.0  0.7449139172265437  0.8814282697540743  0.43668409387810986  1.0000
  H   H1249     1.0  0.712850573637346  0.9066554051565754  0.42038077051637757  1.0000
  H   H1250     1.0  0.7180750764949501  0.9086257435481869  0.45920286476089534  1.0000
  H   H1251     1.0  0.7447457812239683  0.868214070361821  0.41621268607361117  1.0000
  H   H1252     1.0  0.7490839583547735  0.8680570773547523  0.45613070865428035  1.0000
  C   C1587     1.0  0.7089965291096202  0.8329704509823503  0.2939088621418157  1.0000
  C   C1588     1.0  0.6946335353033849  0.8067284337982498  0.29529822362273783  1.0000
  H   H1253     1.0  0.7305441257608475  0.8298431772127037  0.298441515037176  1.0000
  H   H1254     1.0  0.7033748349930108  0.8460841421303257  0.3124351638730234  1.0000
  H   H1255     1.0  0.7052865057177506  0.7942779770309564  0.3112614312939404  1.0000
  H   H1256     1.0  0.6961578899981505  0.7969200232366458  0.27329518372167066  1.0000
  C   C1589     1.0  0.9954975966259527  0.9607946084347565  0.7869121130105838  1.0000
  C   C1590     1.0  0.9846878662668915  0.9886465192684865  0.7950082002322132  1.0000
  H   H1257     1.0  0.5019829270926068  0.9514311736053731  0.8081926849415716  1.0000
  H   H1258     1.0  0.5131047944137751  0.9636706696438163  0.7732652488003747  1.0000
  H   H1259     1.0  0.9736306568231214  0.997498321003245  0.7752436995492078  1.0000
  H   H1260     1.0  0.9692820217048119  0.9872382467017027  0.8126542025291086  1.0000
  C   C1591     1.0  0.9492249169492541  0.8928567629900542  0.48782593424626014  1.0000
  C   C1592     1.0  0.9411243296666975  0.9195507051166109  0.4747703822823312  1.0000
  H   H1261     1.0  0.9708577770572664  0.8928980573449697  0.49229412076890555  1.0000
  H   H1262     1.0  0.9453196575427427  0.8779476438282  0.4698953907180718  1.0000
  H   H1263     1.0  0.9559242043811652  0.9241984564988955  0.4570065621318536  1.0000
  H   H1264     1.0  0.9459441448995173  0.9338166599924163  0.4924208305359657  1.0000
  C   C1593     1.0  0.8427014171368676  0.5151889072085433  0.7289412830914055  1.0000
  C   C1594     1.0  0.8358390506723244  0.9873516027240585  0.7179842227082613  1.0000
  H   H1265     1.0  0.8620635097823305  0.5211593902756487  0.7199471126085082  1.0000
  H   H1266     1.0  0.8454491348122225  0.5150106966024206  0.7534207208960682  1.0000
  H   H1267     1.0  0.8290442600810274  0.9876873164129328  0.6943606315758466  1.0000
  H   H1268     1.0  0.8182863891365108  0.9807460162333803  0.7297148795639828  1.0000
  C   C1595     1.0  0.8641057300605528  0.7587030578668679  0.6217514890936728  1.0000
  C   C1596     1.0  0.8627330735847323  0.7441252379183888  0.5916234632521733  1.0000
  H   H1269     1.0  0.870995002216551  0.7442358756360824  0.6388039561659183  1.0000
  H   H1270     1.0  0.8446343801958359  0.7655671763796463  0.6290250743185963  1.0000
  H   H1271     1.0  0.8828405046932842  0.7381773193451562  0.5857370165298024  1.0000
  H   H1272     1.0  0.8580191320992773  0.7580794824548599  0.5732461010717204  1.0000
  C   C1597     1.0  0.542917610109971  0.8239200843740029  0.5623623989747689  1.0000
  C   C1598     1.0  0.5425927856180175  0.8305517063307746  0.5286375941314583  1.0000
  H   H1273     1.0  0.5577722083763613  0.8348239087661368  0.5755713364461916  1.0000
  H   H1274     1.0  0.5493505080321208  0.803761387648626  0.5663948817369974  1.0000
  H   H1275     1.0  0.5351637515178695  0.8513945313334288  0.5252542210531168  1.0000
  H   H1276     1.0  0.5273698468086275  0.8176691006558079  0.5181273524005788  1.0000
  C   C1599     1.0  0.8855385113728512  0.8093552625316562  0.8110825568218896  1.0000
  C   C1600     1.0  0.8853257412778183  0.8027433052174889  0.7775289213130283  1.0000
  H   H1277     1.0  0.8708782386908728  0.8253131344435874  0.8158930820134341  1.0000
  H   H1278     1.0  0.9048232350561758  0.8188461196813397  0.8166533406157949  1.0000
  H   H1279     1.0  0.8657557388433534  0.7955187289346445  0.7695239762045476  1.0000
  H   H1280     1.0  0.8990804517075727  0.7859574137424538  0.7726539297487689  1.0000
