data_image0
_chemical_formula_sum              "C3200 H2560"
_cell_length_a       94.80859719374878
_cell_length_b       95.33854168594716
_cell_length_c       28.374747819294598
_cell_angle_alpha    90.0623999994047
_cell_angle_beta     89.97929999947804
_cell_angle_gamma    90.13589999978225

_space_group_name_H-M_alt    "P 1"
_space_group_IT_number       1

loop_
  _space_group_symop_operation_xyz
  'x, y, z'

loop_
  _atom_site_type_symbol
  _atom_site_label
  _atom_site_symmetry_multiplicity
  _atom_site_fract_x
  _atom_site_fract_y
  _atom_site_fract_z
  _atom_site_occupancy
  C   C1        1.0  0.6795199822075806  0.24766906608623626  0.2506991329628501  1.0000
  C   C2        1.0  0.6676908739030416  0.240093544995734  0.23978202435587326  1.0000
  C   C3        1.0  0.6685192512330337  0.22602302830743184  0.22816323504267919  1.0000
  C   C4        1.0  0.6816019207502003  0.2198657293012771  0.22407438544271321  1.0000
  C   C5        1.0  0.6932181713855136  0.22733289289486056  0.24047700896293525  1.0000
  C   C6        1.0  0.692340414218744  0.24104259037561152  0.252099674965114  1.0000
  H   H1        1.0  0.6576238773586849  0.24555217395368348  0.23707010419799202  1.0000
  H   H2        1.0  0.6589762831474267  0.22080185853438727  0.21594391136313945  1.0000
  H   H3        1.0  0.7034237330436052  0.22236114584519234  0.24054890392228648  1.0000
  H   H4        1.0  0.7017796828870477  0.2465816861106892  0.2646594424227581  1.0000
  C   C7        1.0  0.7050369622582888  0.21354161756898743  0.14862027317731824  1.0000
  C   C8        1.0  0.6984975565950994  0.2027131494349329  0.1723438476318699  1.0000
  C   C9        1.0  0.7042552906695545  0.18959091886330184  0.16745992436378437  1.0000
  C   C10       1.0  0.7172668523299426  0.1878697448252461  0.14823084214749904  1.0000
  C   C11       1.0  0.724763370588776  0.19917965557983688  0.130981338297272  1.0000
  C   C12       1.0  0.7182560221678864  0.2122216945021655  0.13115860871175078  1.0000
  C   C13       1.0  0.683351517714731  0.20490866671573524  0.19879696355786933  1.0000
  C   C14       1.0  0.6737371242765734  0.2018754479834585  0.15404587562443736  1.0000
  C   C15       1.0  0.6702676041777793  0.18826481629226738  0.14063429386898962  1.0000
  C   C16       1.0  0.6624885596756644  0.18591594251956933  0.10055532101457407  1.0000
  C   C17       1.0  0.6577002986705512  0.19674631305666385  0.07298994777625846  1.0000
  C   C18       1.0  0.6609944338007612  0.21022472383850457  0.08621650573925815  1.0000
  C   C19       1.0  0.6696364085441782  0.21254359694331007  0.12434550403440706  1.0000
  C   C20       1.0  0.6932284108194576  0.19334374737608806  0.27394869408246353  1.0000
  C   C21       1.0  0.6929691146889866  0.1845021463085823  0.3114190076764974  1.0000
  C   C22       1.0  0.6814887181418493  0.17586302555791214  0.3198761809095937  1.0000
  C   C23       1.0  0.6696761630988397  0.17794407323542766  0.290842599824919  1.0000
  C   C24       1.0  0.669417833870838  0.18734690503260576  0.25359149537165215  1.0000
  C   C25       1.0  0.6819601091947494  0.19441803220190468  0.242226100547544  1.0000
  C   C26       1.0  0.6813728982605592  0.16558884854373151  0.3644933468599204  1.0000
  C   C27       1.0  0.7236428105000032  0.15230499539614925  0.40790169069958665  1.0000
  C   C28       1.0  0.7133213154696879  0.15485310308889202  0.4413293225351988  1.0000
  C   C29       1.0  0.6998806262112016  0.15866651329709527  0.42720760184302187  1.0000
  C   C30       1.0  0.6963097394904681  0.1598544131898456  0.38032433496804585  1.0000
  C   C31       1.0  0.7067954484368196  0.15633750505129426  0.3480702826159613  1.0000
  C   C32       1.0  0.7202306605617939  0.15283951597314976  0.3612756950026812  1.0000
  C   C33       1.0  0.6739759024757708  0.15053595602077552  0.3542342181015159  1.0000
  C   C34       1.0  0.6742056754776968  0.14447363127092527  0.3098154681419477  1.0000
  C   C35       1.0  0.6678696954662948  0.13168590106222638  0.3013914229783564  1.0000
  C   C36       1.0  0.6622804345772821  0.12398923358628555  0.3374365247311334  1.0000
  C   C37       1.0  0.6626471118330468  0.1294098317132015  0.3824670866977298  1.0000
  C   C38       1.0  0.6684500326446237  0.14246394481386376  0.39077729817568163  1.0000
  C   C39       1.0  0.6579010637910204  0.17415741675501029  0.4005218845779449  1.0000
  C   C40       1.0  0.6499763990596931  0.18196730031686348  0.42904726697936235  1.0000
  C   C41       1.0  0.6559873724480138  0.19206057034617832  0.4573823391942618  1.0000
  C   C42       1.0  0.670430014805391  0.19341003591499764  0.45918676170346934  1.0000
  C   C43       1.0  0.6786338641601561  0.18540041111106584  0.4292692955303  1.0000
  C   C44       1.0  0.6726523641053421  0.1752397092108575  0.40000029369637713  1.0000
  H   H5        1.0  0.7000197434281922  0.22369825596604662  0.14591187728215027  1.0000
  H   H6        1.0  0.698770071184215  0.1802885571423225  0.18134974856942637  1.0000
  H   H7        1.0  0.7221529251309559  0.17741943307060243  0.14775541910747542  1.0000
  H   H8        1.0  0.7242176315157822  0.2208891760342251  0.1163496567904812  1.0000
  H   H9        1.0  0.6741705554181011  0.17959168501506437  0.16066902254153442  1.0000
  H   H10       1.0  0.6594627758570356  0.17538888023325813  0.08980526246020742  1.0000
  H   H11       1.0  0.6574337482255848  0.21908431982342194  0.0654441488808205  1.0000
  H   H12       1.0  0.6728840620630882  0.22308327432244662  0.13194451929681578  1.0000
  H   H13       1.0  0.7029858967396037  0.19879398290228634  0.26799128039190806  1.0000
  H   H14       1.0  0.7018082778364407  0.18482030620770734  0.3351513927878323  1.0000
  H   H15       1.0  0.6599800440260002  0.17312183322579308  0.2991320181528624  1.0000
  H   H16       1.0  0.660054165090813  0.18930936784029676  0.23408963522135764  1.0000
  H   H17       1.0  0.7155670053150835  0.15527960447070074  0.4789578755250596  1.0000
  H   H18       1.0  0.6923176742354461  0.16025221305084772  0.4556378291511803  1.0000
  H   H19       1.0  0.7044571840538115  0.1560328149421748  0.31087168967712253  1.0000
  H   H20       1.0  0.7276708970253237  0.14983403425436653  0.33415508371878355  1.0000
  H   H21       1.0  0.6789415104322288  0.1502121003396108  0.280530607125815  1.0000
  H   H22       1.0  0.6675286489319473  0.12728908618975548  0.26626192467849374  1.0000
  H   H23       1.0  0.6583149278975339  0.12304904102229548  0.4107457707092165  1.0000
  H   H24       1.0  0.6695736302107952  0.14644160062747094  0.42714064085146924  1.0000
  H   H25       1.0  0.6521335057527206  0.1672953684398318  0.3773392844498841  1.0000
  H   H26       1.0  0.6388648295505726  0.18108114460490674  0.42630891485113137  1.0000
  H   H27       1.0  0.6754982720130974  0.2011267135967921  0.4816856548651507  1.0000
  H   H28       1.0  0.6899408162410507  0.1875218063444877  0.4276551832076105  1.0000
  C   C45       1.0  0.6808963417657129  0.25539449327217556  0.7341744084338125  1.0000
  C   C46       1.0  0.6684373366183489  0.24867212207458758  0.7244826859722486  1.0000
  C   C47       1.0  0.6684086269618609  0.23446720835585677  0.715675553451722  1.0000
  C   C48       1.0  0.6808682416640078  0.22685325583118715  0.7156403108245891  1.0000
  C   C49       1.0  0.6926636247406788  0.23346736949756944  0.7343647186203305  1.0000
  C   C50       1.0  0.6928169853621536  0.24763262252207963  0.7405427511567383  1.0000
  H   H29       1.0  0.6588392795559329  0.25476376813344936  0.7201760369366009  1.0000
  H   H30       1.0  0.6588316293319283  0.22960077135381338  0.7040913019131183  1.0000
  H   H31       1.0  0.7023664864259779  0.22828730817569065  0.7357215597649495  1.0000
  H   H32       1.0  0.7029291603460626  0.2525147084183183  0.7486274098210393  1.0000
  C   C51       1.0  0.6998195829581287  0.22373513817259066  0.6322174881381607  1.0000
  C   C52       1.0  0.6962667673200806  0.2119224837117022  0.6581877800724385  1.0000
  C   C53       1.0  0.7050963550240137  0.20038049858239984  0.6551780597152838  1.0000
  C   C54       1.0  0.7173240411433364  0.20093223693300571  0.629327592713258  1.0000
  C   C55       1.0  0.7210586196905611  0.21301852682060546  0.6062049050513233  1.0000
  C   C56       1.0  0.7124757987903636  0.2244877568359696  0.6080375216622371  1.0000
  C   C57       1.0  0.6824315727681395  0.21205971314958136  0.6900294936870675  1.0000
  C   C58       1.0  0.6711005446028919  0.20810166439680017  0.6494335114926113  1.0000
  C   C59       1.0  0.6682557651824431  0.1942534222641432  0.6375320763098109  1.0000
  C   C60       1.0  0.6591652064085948  0.19100267697203543  0.6012462674137158  1.0000
  C   C61       1.0  0.6539117528387668  0.20135885214800758  0.5733904949278247  1.0000
  C   C62       1.0  0.6575867934485796  0.21512418569457684  0.5819121621685743  1.0000
  C   C63       1.0  0.6659942846930443  0.21816557284012814  0.6194984240058755  1.0000
  C   C64       1.0  0.6947975771280789  0.20026800363157923  0.7612372218092122  1.0000
  C   C65       1.0  0.6959514631760717  0.190840667224028  0.7973150992052228  1.0000
  C   C66       1.0  0.6848172572307075  0.1819737285797558  0.8083707113368321  1.0000
  C   C67       1.0  0.6724100552948843  0.18385335302480152  0.782467380394107  1.0000
  C   C68       1.0  0.6713734549680007  0.1938769410198383  0.7478661690749673  1.0000
  C   C69       1.0  0.6829469832829578  0.2019795123959824  0.7344316796118832  1.0000
  C   C70       1.0  0.6862114169323279  0.16994719543205955  0.8475922310731028  1.0000
  C   C71       1.0  0.7305482520060206  0.16007462432247924  0.8724030405747063  1.0000
  C   C72       1.0  0.7212349236700903  0.16139255777067724  0.9096298276152515  1.0000
  C   C73       1.0  0.7073740251207477  0.16401559254316284  0.9023627979004352  1.0000
  C   C74       1.0  0.7021289814145898  0.16563317490861185  0.8575905643907235  1.0000
  C   C75       1.0  0.7113208500085977  0.1629202077143947  0.820360253087465  1.0000
  C   C76       1.0  0.7253998966449934  0.16068226869951627  0.8280924854804363  1.0000
  C   C77       1.0  0.6801911141421569  0.15477210117345042  0.83245904698221  1.0000
  C   C78       1.0  0.6782450452464729  0.1504683398077305  0.7866929713873487  1.0000
  C   C79       1.0  0.6718473545376789  0.13786286228318567  0.7774805486547932  1.0000
  C   C80       1.0  0.6677405045975197  0.1290027027585085  0.8127055544741862  1.0000
  C   C81       1.0  0.6703372983296049  0.1328449918117457  0.8586020277894394  1.0000
  C   C82       1.0  0.6774672668671025  0.14512426246409263  0.8678144505219949  1.0000
  C   C83       1.0  0.6630219680703597  0.1736349600348614  0.8956878443214527  1.0000
  C   C84       1.0  0.6551363711908261  0.18073692516659315  0.9277198681225995  1.0000
  C   C85       1.0  0.6609121456796955  0.19083755459441962  0.9561078042781984  1.0000
  C   C86       1.0  0.6750188482980102  0.19387674461965437  0.9512866128864096  1.0000
  C   C87       1.0  0.6831026775015369  0.18671686188108258  0.9185497365426035  1.0000
  C   C88       1.0  0.6772064361548839  0.17651232205240952  0.8899468203614935  1.0000
  H   H33       1.0  0.6934808736821968  0.23273887311114538  0.6322351094517271  1.0000
  H   H34       1.0  0.7023451349800327  0.1903711894815796  0.6723341706036084  1.0000
  H   H35       1.0  0.7243241891116318  0.19228841615182474  0.6265117068053345  1.0000
  H   H36       1.0  0.7155644728857106  0.23411273837034088  0.5927880369018056  1.0000
  H   H37       1.0  0.673677989952113  0.1856371164610905  0.6548996429609334  1.0000
  H   H38       1.0  0.6564558579891203  0.18017979771349166  0.5936479570038498  1.0000
  H   H39       1.0  0.6544032868862183  0.2237103849285202  0.5590291243711436  1.0000
  H   H40       1.0  0.6686009351743841  0.22906778235031308  0.6226667361851286  1.0000
  H   H41       1.0  0.7042554827639688  0.20660782842914902  0.7556653624594912  1.0000
  H   H42       1.0  0.7053743348068521  0.19029233335073584  0.8174844547134156  1.0000
  H   H43       1.0  0.6630871349454429  0.1775907197724297  0.7899599629225741  1.0000
  H   H44       1.0  0.6618172490022427  0.19466850021633492  0.7273302902445917  1.0000
  H   H45       1.0  0.7248001580210066  0.1608945633958927  0.945968500452046  1.0000
  H   H46       1.0  0.7003716338010291  0.1650040204382584  0.932643263133074  1.0000
  H   H47       1.0  0.7078032593727519  0.16349161116052482  0.7839792890981109  1.0000
  H   H48       1.0  0.7325224299975293  0.15963392585117686  0.7974173028239083  1.0000
  H   H49       1.0  0.6818311406561165  0.15709647473861474  0.7580301427401128  1.0000
  H   H50       1.0  0.6700445055915207  0.13519512320559396  0.7406379062499973  1.0000
  H   H51       1.0  0.6672077855144026  0.12616758727226415  0.8873529630045077  1.0000
  H   H52       1.0  0.678598803688521  0.14800580296815866  0.9041214049943699  1.0000
  H   H53       1.0  0.6579028831514406  0.16586711812793842  0.8739043764905704  1.0000
  H   H54       1.0  0.64413082464766  0.1781218956704771  0.9305568996068028  1.0000
  H   H55       1.0  0.6796673747161194  0.20201896845295622  0.9728410036409276  1.0000
  H   H56       1.0  0.6941004276642232  0.18955075237337818  0.9146060865664253  1.0000
  C   C89       1.0  0.6688320307920139  0.35417784146264  0.07461287075573124  1.0000
  C   C90       1.0  0.6623517284587552  0.3449634705133851  0.1043354452008553  1.0000
  C   C91       1.0  0.6699463462608364  0.33776928085226815  0.13731584809815015  1.0000
  C   C92       1.0  0.6844694020667701  0.3392796223264478  0.1403389606536154  1.0000
  C   C93       1.0  0.6908950876700028  0.3500874337533634  0.11436866871933754  1.0000
  C   C94       1.0  0.6832336157559634  0.3570557080380625  0.08014525836306322  1.0000
  H   H57       1.0  0.651476679064967  0.3422743036405193  0.09848904578576864  1.0000
  H   H58       1.0  0.6649796212027881  0.33045327211659375  0.16012663850995817  1.0000
  H   H59       1.0  0.7018973330184655  0.3525761158234656  0.11976572463847897  1.0000
  H   H60       1.0  0.6881832153218945  0.3647147443455434  0.05745288317842192  1.0000
  C   C95       1.0  0.7115832053153132  0.3236714458965274  0.11583652413942531  1.0000
  C   C96       1.0  0.709048865815758  0.3272171650817102  0.16256014191348903  1.0000
  C   C97       1.0  0.7203063058070341  0.3277411205355224  0.193423520198907  1.0000
  C   C98       1.0  0.7334794593761645  0.32498719266364234  0.17869703602512854  1.0000
  C   C99       1.0  0.735754885937299  0.3204034588632202  0.13318717432952393  1.0000
  C   C100      1.0  0.7248231393963958  0.31928859024615963  0.10113717678853923  1.0000
  C   C101      1.0  0.6932716276432462  0.33053806012868386  0.17902479245746508  1.0000
  C   C102      1.0  0.687906837425032  0.3150339846772265  0.19094948777417325  1.0000
  C   C103      1.0  0.6909482021668063  0.30877011311939173  0.23348099505077144  1.0000
  C   C104      1.0  0.687979610626603  0.29476254070004293  0.2413256514242969  1.0000
  C   C105      1.0  0.6823567445619259  0.28655509006952307  0.20621447929054332  1.0000
  C   C106      1.0  0.6800738280972993  0.29237714463404496  0.1629682515356887  1.0000
  C   C107      1.0  0.682302983527432  0.3063753649883948  0.15539531581735835  1.0000
  C   C108      1.0  0.7009150476533901  0.35274725743825375  0.2239277761138401  1.0000
  C   C109      1.0  0.7001579915724766  0.36200282387807164  0.25986644513267554  1.0000
  C   C110      1.0  0.6896949577306616  0.36096818216825305  0.29416386500592906  1.0000
  C   C111      1.0  0.6799593526305179  0.35041942918161906  0.2876901468278758  1.0000
  C   C112      1.0  0.6805278755693094  0.3412517946244019  0.2512097986300067  1.0000
  C   C113      1.0  0.6915602451377555  0.3418381628238318  0.21893248614401442  1.0000
  C   C114      1.0  0.6898798199815991  0.37105509534382786  0.33849556567647887  1.0000
  C   C115      1.0  0.7345577201473242  0.36748503202853466  0.38177280694321053  1.0000
  C   C116      1.0  0.7285979426370237  0.38033856465814797  0.376384209254581  1.0000
  C   C117      1.0  0.7147755701490431  0.38164469066186535  0.36420083305471684  1.0000
  C   C118      1.0  0.7059740493174992  0.3700313085569325  0.35773028671310547  1.0000
  C   C119      1.0  0.7121767723407261  0.3570076972330119  0.3658713335808192  1.0000
  C   C120      1.0  0.7261192568391419  0.3557135850746843  0.37952432733212765  1.0000
  C   C121      1.0  0.678931117936123  0.36560292317732174  0.37733576018717085  1.0000
  C   C122      1.0  0.6647219679633009  0.36960407132354556  0.37288461638027814  1.0000
  C   C123      1.0  0.6547867568545125  0.3650491749244388  0.4034575954181205  1.0000
  C   C124      1.0  0.6582910385673397  0.356268225978781  0.4403601502890424  1.0000
  C   C125      1.0  0.6720132678294649  0.3514968749029126  0.44384564611249205  1.0000
  C   C126      1.0  0.6820659506003873  0.35670345347088195  0.414252412108946  1.0000
  C   C127      1.0  0.6851966909717943  0.3967112161117319  0.3582589261200999  1.0000
  C   C128      1.0  0.6828401464165065  0.41073997731420764  0.3478267560624726  1.0000
  C   C129      1.0  0.6808331706412639  0.41491946629915905  0.30136252402410746  1.0000
  C   C130      1.0  0.681727734967616  0.4049940199046081  0.266550914220984  1.0000
  C   C131      1.0  0.6838483767459541  0.3910909377391644  0.2764008760783749  1.0000
  C   C132      1.0  0.6864068589925849  0.38684845810863994  0.3226895998336179  1.0000
  H   H61       1.0  0.7027668036255181  0.3231264310745316  0.09119875593704464  1.0000
  H   H62       1.0  0.7187571633111169  0.3299714282568462  0.23013823186721022  1.0000
  H   H63       1.0  0.7420359448642213  0.32578814352989754  0.20335101583599036  1.0000
  H   H64       1.0  0.7264677338627858  0.31595275602354667  0.06445524076346965  1.0000
  H   H65       1.0  0.6958800426238076  0.3147637901178748  0.2602576382938514  1.0000
  H   H66       1.0  0.6908605493160571  0.29023676706029916  0.27437653957585767  1.0000
  H   H67       1.0  0.6775488419049048  0.28531784386380793  0.1331237376006846  1.0000
  H   H68       1.0  0.6804531809009945  0.3106551855491362  0.12076591039651235  1.0000
  H   H69       1.0  0.7093291704794443  0.354443894541716  0.19978305226504955  1.0000
  H   H70       1.0  0.7081767804302556  0.36987046578474325  0.26269678051772355  1.0000
  H   H71       1.0  0.6714140133310792  0.348557161025947  0.31212703205559855  1.0000
  H   H72       1.0  0.6725816315222083  0.33331724442675414  0.24906211293252417  1.0000
  H   H73       1.0  0.7352992966724816  0.3894814285532951  0.37848466983170537  1.0000
  H   H74       1.0  0.7116519046131905  0.3921491431919598  0.35695847317889373  1.0000
  H   H75       1.0  0.7059639161116317  0.34777037090792784  0.3603417653836578  1.0000
  H   H76       1.0  0.7303958587592843  0.34506202324447827  0.3827137850876605  1.0000
  H   H77       1.0  0.6612554983925462  0.37605083490313423  0.34449280353569456  1.0000
  H   H78       1.0  0.6440764734388505  0.36875275487183923  0.39998972090823726  1.0000
  H   H79       1.0  0.6746097201583445  0.34466827400307476  0.4721172815985522  1.0000
  H   H80       1.0  0.6922876610885599  0.35318330392385633  0.42380668832469126  1.0000
  H   H81       1.0  0.6860083591983591  0.393724154494575  0.3944883468127823  1.0000
  H   H82       1.0  0.6833972739962818  0.41833392524416363  0.3767754024157568  1.0000
  H   H83       1.0  0.6805964735506689  0.4079916517594603  0.2305724210334883  1.0000
  H   H84       1.0  0.6835885211523473  0.38382498582860175  0.24649926908741535  1.0000
  C   C133      1.0  0.6595019694945369  0.3558160223159041  0.5565480434209833  1.0000
  C   C134      1.0  0.6559208375642434  0.3462150221203888  0.5907862556806535  1.0000
  C   C135      1.0  0.6659599689939827  0.3409056528177358  0.6203830139469129  1.0000
  C   C136      1.0  0.6800071905586054  0.34472044206801394  0.6169961974794355  1.0000
  C   C137      1.0  0.6833797894440756  0.35539700197308755  0.5841183506270976  1.0000
  C   C138      1.0  0.6730276632396757  0.3608439570908063  0.5550784258695388  1.0000
  H   H85       1.0  0.6450255143202305  0.343426210215682  0.5946558961398525  1.0000
  H   H86       1.0  0.6628563231638661  0.33295571619906045  0.6452149690247961  1.0000
  H   H87       1.0  0.6936518234020195  0.35954308962567355  0.5802592829560385  1.0000
  H   H88       1.0  0.675783210740712  0.368280560891623  0.528942493587736  1.0000
  C   C139      1.0  0.7088792871523902  0.3326850032709777  0.5833817797200187  1.0000
  C   C140      1.0  0.7067841702273423  0.33765977087796323  0.6282597411111293  1.0000
  C   C141      1.0  0.7187506681646573  0.34074368197215704  0.654645896045576  1.0000
  C   C142      1.0  0.7319440416192758  0.3400745698107339  0.6354739068852462  1.0000
  C   C143      1.0  0.7337571057708471  0.33530498873382775  0.5893695020699085  1.0000
  C   C144      1.0  0.7219661224920002  0.3311253572693807  0.5641463538308493  1.0000
  C   C145      1.0  0.691502460389632  0.3375891507097291  0.6498669958063469  1.0000
  C   C146      1.0  0.6896639339367212  0.32106393526814425  0.6568133176142531  1.0000
  C   C147      1.0  0.6971536734244369  0.31428840831706983  0.6935044167223773  1.0000
  C   C148      1.0  0.6964945337336056  0.30011215198204266  0.7019309288698679  1.0000
  C   C149      1.0  0.6880334050850907  0.29180831341200425  0.673638147807528  1.0000
  C   C150      1.0  0.6809717379729137  0.2980930856928013  0.6373452903860062  1.0000
  C   C151      1.0  0.6826366046126298  0.31196662742018166  0.6269663366953496  1.0000
  C   C152      1.0  0.6950280467349839  0.36072079038463584  0.6961969534353354  1.0000
  C   C153      1.0  0.6944502554266282  0.3684182848387604  0.7371911773163938  1.0000
  C   C154      1.0  0.6888300559564422  0.363000305388454  0.7779704211719413  1.0000
  C   C155      1.0  0.6831373644537584  0.34956005922681604  0.7757078445100053  1.0000
  C   C156      1.0  0.6837639505218008  0.341977941126274  0.7347065721035202  1.0000
  C   C157      1.0  0.6901395813243696  0.3471057871115086  0.6951960628247592  1.0000
  C   C158      1.0  0.6897948724944001  0.37167966663369756  0.8257488507760945  1.0000
  C   C159      1.0  0.7363023147500752  0.37357577544117004  0.8377877322047134  1.0000
  C   C160      1.0  0.72870482123154  0.3853360014052949  0.8248219696824977  1.0000
  C   C161      1.0  0.7140820525780808  0.38500632024886233  0.8238105062837817  1.0000
  C   C162      1.0  0.7068004600697546  0.3726449416092314  0.8298828109387906  1.0000
  C   C163      1.0  0.7146973812390293  0.3606526696829898  0.8388696808576954  1.0000
  C   C164      1.0  0.7291903618954253  0.36111034029598493  0.8431939512069094  1.0000
  C   C165      1.0  0.6822551500303993  0.3646840621765195  0.8695060966243771  1.0000
  C   C166      1.0  0.6678833214685933  0.3620242061728278  0.86671840481816  1.0000
  C   C167      1.0  0.6608548802185533  0.3573218412768481  0.9050835287150997  1.0000
  C   C168      1.0  0.6674934434189979  0.35570792372717136  0.9482169800631288  1.0000
  C   C169      1.0  0.6816868909120317  0.3578452362727966  0.9504090714707989  1.0000
  C   C170      1.0  0.688936905220449  0.3630217081822083  0.9120615688874256  1.0000
  C   C171      1.0  0.6828186322484587  0.39657117197442243  0.8585597366368798  1.0000
  C   C172      1.0  0.6737290391834468  0.4078739025030244  0.861241700561698  1.0000
  C   C173      1.0  0.6627094346355055  0.40888019875148635  0.8301048394897282  1.0000
  C   C174      1.0  0.661765526346218  0.39973236561814685  0.7932304787205128  1.0000
  C   C175      1.0  0.670976669921062  0.3889032010589813  0.7888956355831587  1.0000
  C   C176      1.0  0.6818032809305822  0.3866777251027399  0.8221541028085326  1.0000
  H   H89       1.0  0.7000770612375871  0.33020535949252255  0.5605516058632874  1.0000
  H   H90       1.0  0.7182991190914263  0.3441087478724941  0.6909035108399648  1.0000
  H   H91       1.0  0.7409421816129068  0.3444671305497334  0.6542300330454072  1.0000
  H   H92       1.0  0.7227465558522885  0.3277038461342624  0.5284913879604342  1.0000
  H   H93       1.0  0.7036433763034696  0.3205673522536318  0.7169407637657953  1.0000
  H   H94       1.0  0.7019597819516117  0.2955193526215313  0.7320633750685481  1.0000
  H   H95       1.0  0.6745098288808389  0.29158062017663106  0.6150895713515423  1.0000
  H   H96       1.0  0.6766282860845456  0.31528605934409853  0.5968127449203895  1.0000
  H   H97       1.0  0.7001027964149418  0.365260270654477  0.6666037194317892  1.0000
  H   H98       1.0  0.6983399329644275  0.379434310439356  0.7387735712746637  1.0000
  H   H99       1.0  0.6782341028409485  0.34389258468564526  0.8039724314706388  1.0000
  H   H100      1.0  0.6791582288302499  0.3315763442142196  0.7356686958242501  1.0000
  H   H101      1.0  0.7337794356205095  0.39552879596409973  0.8236378174108302  1.0000
  H   H102      1.0  0.708860752217299  0.39486659049554657  0.8193135470616162  1.0000
  H   H103      1.0  0.7096514890770383  0.3507116298250054  0.8433525430290078  1.0000
  H   H104      1.0  0.7348339498616507  0.3514549153773626  0.8486495098870916  1.0000
  H   H105      1.0  0.662006770787257  0.3639039742607989  0.834781536110272  1.0000
  H   H106      1.0  0.6495536318668503  0.3551135769183735  0.9008050737811584  1.0000
  H   H107      1.0  0.6871419032394799  0.35658343270607673  0.9828534340094015  1.0000
  H   H108      1.0  0.6994815527973716  0.36691386379736407  0.9176122826608667  1.0000
  H   H109      1.0  0.6898826595506914  0.39496766427433605  0.8884948241236156  1.0000
  H   H110      1.0  0.6742697985106971  0.41524764707510303  0.8903908774633689  1.0000
  H   H111      1.0  0.6531787239503265  0.4003240088423334  0.7675245064897321  1.0000
  H   H112      1.0  0.6692167279623552  0.3812079599922915  0.7613359011651843  1.0000
  C   C177      1.0  0.8162425125279779  0.2480447607347444  0.06668891847115661  1.0000
  C   C178      1.0  0.8271469956222862  0.23894042786301212  0.07668372752606394  1.0000
  C   C179      1.0  0.8249883650903168  0.22449576533880525  0.07573852026635797  1.0000
  C   C180      1.0  0.8117061661732824  0.21904149150131602  0.0692274449035437  1.0000
  C   C181      1.0  0.8010828540744984  0.22825281071920878  0.05599066657867543  1.0000
  C   C182      1.0  0.8031682909109149  0.24253180851863654  0.057124069467271416  1.0000
  H   H113      1.0  0.8375390967926681  0.2426507576937065  0.08434089312324204  1.0000
  H   H114      1.0  0.8336789958111197  0.21792763171298676  0.08239303312160338  1.0000
  H   H115      1.0  0.7909525439917616  0.2237674948466661  0.04879235998676846  1.0000
  H   H116      1.0  0.7947249734511556  0.24962136025383966  0.04759058640153454  1.0000
  C   C183      1.0  0.7869438731418694  0.2085517473284074  0.12835963926485114  1.0000
  C   C184      1.0  0.7922688115582867  0.19968258122613028  0.09367560777194904  1.0000
  C   C185      1.0  0.7842615709465167  0.18785353828402943  0.08199972540279955  1.0000
  C   C186      1.0  0.7708057470585751  0.18630362611675522  0.09929504466829944  1.0000
  C   C187      1.0  0.7654588205286958  0.19639774127048842  0.1302394809961232  1.0000
  C   C188      1.0  0.7735037849749193  0.20735493313273262  0.14448102662055215  1.0000
  C   C189      1.0  0.8076474757311405  0.2028054309656945  0.07188368171055486  1.0000
  C   C190      1.0  0.8168553097597714  0.19378322470815024  0.10875205123315779  1.0000
  C   C191      1.0  0.8183150831995776  0.17933995573168118  0.10239392887210057  1.0000
  C   C192      1.0  0.8238620957502638  0.17067831987180407  0.13525168742697272  1.0000
  C   C193      1.0  0.8288013739330193  0.17648381117488576  0.17688345043286646  1.0000
  C   C194      1.0  0.8274455610651748  0.19075732496669792  0.18375435301870824  1.0000
  C   C195      1.0  0.8214886124777013  0.1991220700988854  0.15073306867393915  1.0000
  C   C196      1.0  0.7990931299758515  0.19817401030144283  0.9867125016804604  1.0000
  C   C197      1.0  0.7991298767901511  0.1900981837444099  0.9467050713591249  1.0000
  C   C198      1.0  0.8110897360576044  0.18244664179737596  0.9342432784049104  1.0000
  C   C199      1.0  0.8229156560598102  0.1845922903014391  0.9621730604077808  1.0000
  C   C200      1.0  0.822210789456272  0.1920853001234988  0.003322351848224381  1.0000
  C   C201      1.0  0.8099423139085571  0.1980239132885829  0.018071115216577716  1.0000
  C   C202      1.0  0.8118986166415055  0.1720148516346074  0.8905600420736071  1.0000
  C   C203      1.0  0.7714740286165168  0.15155415101740777  0.8682831774628633  1.0000
  C   C204      1.0  0.7799394690094605  0.15424172804234448  0.8303585864050856  1.0000
  C   C205      1.0  0.7928236667910534  0.1604587523833599  0.8374952183995099  1.0000
  C   C206      1.0  0.7978611571971346  0.16332811265969835  0.8815344052648562  1.0000
  C   C207      1.0  0.7897843574207442  0.158639271559339  0.9195541514158928  1.0000
  C   C208      1.0  0.7766751407458559  0.15272650716093486  0.9126642178113993  1.0000
  C   C209      1.0  0.8229582445639588  0.15912720527665195  0.8942534693971411  1.0000
  C   C210      1.0  0.8245834109548703  0.15210697624343847  0.9364670881770001  1.0000
  C   C211      1.0  0.8345183340388257  0.14175678449043969  0.9406962034329552  1.0000
  C   C212      1.0  0.8423309050958558  0.13735574871584905  0.9022500214936097  1.0000
  C   C213      1.0  0.8397091779009089  0.14351127595275212  0.8587676681369643  1.0000
  C   C214      1.0  0.8303241722719741  0.15450154238294184  0.8553033178897943  1.0000
  C   C215      1.0  0.8299165565331305  0.1884159698295266  0.8469790093609894  1.0000
  C   C216      1.0  0.8333503095889854  0.1997697633312374  0.8194862359345676  1.0000
  C   C217      1.0  0.8229898889168054  0.20735764690719968  0.7973256719933626  1.0000
  C   C218      1.0  0.8092647288604982  0.2034097266256521  0.8041944600215765  1.0000
  C   C219      1.0  0.8058061694239819  0.19175966599127436  0.8302105673711271  1.0000
  C   C220      1.0  0.8161942271226873  0.1838087911064294  0.8521455784986812  1.0000
  H   H117      1.0  0.7930507824690864  0.21705312274569175  0.14152276049901152  1.0000
  H   H118      1.0  0.7877686768952645  0.18007923500121775  0.05645904109327246  1.0000
  H   H119      1.0  0.76422594241896  0.17776531785049615  0.08868666147500728  1.0000
  H   H120      1.0  0.7699050232937394  0.2148003688797025  0.17152234199340063  1.0000
  H   H121      1.0  0.8144495095499678  0.17395926899993078  0.07048208242947705  1.0000
  H   H122      1.0  0.824088525183844  0.15957009311399967  0.12750641526196219  1.0000
  H   H123      1.0  0.8304147160869546  0.19494283573584098  0.21741458619339785  1.0000
  H   H124      1.0  0.8191155961161942  0.2097606658825906  0.15932663087404  1.0000
  H   H125      1.0  0.7890411466066224  0.20331498762617486  0.9942227055224941  1.0000
  H   H126      1.0  0.7896386231518933  0.18980824826428813  0.925915445613392  1.0000
  H   H127      1.0  0.8327501171455785  0.18013553824830447  0.9524883864716435  1.0000
  H   H128      1.0  0.8318512499629651  0.19280136550678528  0.024266769066552  1.0000
  H   H129      1.0  0.7760247044814643  0.15327252710754646  0.7946719021702509  1.0000
  H   H130      1.0  0.7991509065996919  0.16337303851950033  0.8065028520987853  1.0000
  H   H131      1.0  0.7934634698248472  0.1607401612587577  0.9550223313625034  1.0000
  H   H132      1.0  0.7700160386759404  0.1499188135484139  0.9424371892133234  1.0000
  H   H133      1.0  0.8188391894480961  0.1552615184944387  0.9671880862488009  1.0000
  H   H134      1.0  0.8364415215572131  0.13728287352481366  0.9751881626079827  1.0000
  H   H135      1.0  0.845489244762011  0.14031663820718548  0.8273136234207978  1.0000
  H   H136      1.0  0.829616810817072  0.15930915088522565  0.8212695128674954  1.0000
  H   H137      1.0  0.8385230142260528  0.183460375219989  0.8677756836321487  1.0000
  H   H138      1.0  0.8440076373099125  0.20325255798840824  0.8176606678490803  1.0000
  H   H139      1.0  0.8006918219665207  0.21001077446203018  0.7922930248387761  1.0000
  H   H140      1.0  0.7947832432394921  0.18995008423373844  0.8359621641192261  1.0000
  C   C221      1.0  0.8171365760222284  0.2539834156324427  0.4449839829688867  1.0000
  C   C222      1.0  0.8268285389232827  0.2456510425500724  0.4678458751900375  1.0000
  C   C223      1.0  0.8225664829374078  0.23620926805103484  0.5014461958986011  1.0000
  C   C224      1.0  0.8083513141894497  0.23487778589574873  0.5130656900643378  1.0000
  C   C225      1.0  0.7987013512071792  0.243082903469424  0.4891570918173381  1.0000
  C   C226      1.0  0.8031705921803617  0.25276735092268826  0.4567233020668755  1.0000
  H   H141      1.0  0.8378622881313849  0.24648366422227694  0.45750568838922717  1.0000
  H   H142      1.0  0.8303182373572198  0.23004724011718752  0.5183802782359881  1.0000
  H   H143      1.0  0.7871822127053948  0.24183887555222353  0.49228311284403165  1.0000
  H   H144      1.0  0.7955934934223279  0.25917048812326127  0.43936630820389294  1.0000
  C   C227      1.0  0.7812705599474672  0.23407146244478658  0.581933307744854  1.0000
  C   C228      1.0  0.7876056942837572  0.22195146296774224  0.5657463691026857  1.0000
  C   C229      1.0  0.7808013759224872  0.20895783133385856  0.5725340990884937  1.0000
  C   C230      1.0  0.7678988539100595  0.20829981988478496  0.5941131596820048  1.0000
  C   C231      1.0  0.7613125536309066  0.22057233838631154  0.6051476262373344  1.0000
  C   C232      1.0  0.7679697777475529  0.23346600874388324  0.6006224729134625  1.0000
  C   C233      1.0  0.8036753290949777  0.22221429042820812  0.5481779194769054  1.0000
  C   C234      1.0  0.8123130562640509  0.2223644460822494  0.597260326284978  1.0000
  C   C235      1.0  0.8114067886571875  0.21128657071441098  0.6281716345432969  1.0000
  C   C236      1.0  0.8178656435572652  0.21126692591789947  0.6711500183319411  1.0000
  C   C237      1.0  0.8258729849460424  0.2227375429654396  0.6837422090065475  1.0000
  C   C238      1.0  0.8267606357155052  0.23407947329224038  0.6552450207068364  1.0000
  C   C239      1.0  0.8199848608591396  0.2339368564221624  0.6132463819524886  1.0000
  C   C240      1.0  0.7992267162237255  0.20783534358789546  0.47162036055597745  1.0000
  C   C241      1.0  0.8006742821902098  0.1961511050146389  0.4439267041548979  1.0000
  C   C242      1.0  0.8082524169843741  0.18478498920957617  0.45928191679672836  1.0000
  C   C243      1.0  0.8149055174988393  0.18575891896394553  0.5030920265857103  1.0000
  C   C244      1.0  0.8150875114236819  0.19816163227941394  0.5274869730871449  1.0000
  C   C245      1.0  0.8061272976712274  0.20904918418325855  0.5145458804039221  1.0000
  C   C246      1.0  0.8079282227086905  0.17046535826519632  0.42984727461528055  1.0000
  C   C247      1.0  0.7624582281870725  0.1640723685612132  0.43967291905994965  1.0000
  C   C248      1.0  0.7688603058173304  0.16641949457833247  0.39663109854246625  1.0000
  C   C249      1.0  0.7829803457873229  0.16846150002617946  0.39278612792226036  1.0000
  C   C250      1.0  0.7916718383202281  0.16680419980491024  0.4315142508786695  1.0000
  C   C251      1.0  0.785038764739282  0.16399965894748247  0.47426003332823613  1.0000
  C   C252      1.0  0.7707175901662979  0.16254510299406935  0.47831293544852643  1.0000
  C   C253      1.0  0.8175915530241253  0.15800181133512486  0.450799016445825  1.0000
  C   C254      1.0  0.8320964550668952  0.16044775299893052  0.45701229160936574  1.0000
  C   C255      1.0  0.8410740387166545  0.15026440343394687  0.47116573066596223  1.0000
  C   C256      1.0  0.8362791392900468  0.13687218078291133  0.4779217422873506  1.0000
  C   C257      1.0  0.8219321373004231  0.13431942743842473  0.47225120358165745  1.0000
  C   C258      1.0  0.8127068128948145  0.1445900785564726  0.45884843248299295  1.0000
  C   C259      1.0  0.8135725719073774  0.16113184987415077  0.3475701897369446  1.0000
  C   C260      1.0  0.821621906755146  0.16082714346709212  0.30708275483405806  1.0000
  C   C261      1.0  0.8307949923427705  0.171836419640971  0.2975415183903519  1.0000
  C   C262      1.0  0.8316612790787964  0.18309683543810099  0.3282621640358814  1.0000
  C   C263      1.0  0.8237342041902678  0.18337012551023069  0.36890572377696695  1.0000
  C   C264      1.0  0.8144868958206946  0.17222468761030474  0.3790485518658327  1.0000
  H   H145      1.0  0.7868535226097436  0.24387035011083646  0.5822258215500575  1.0000
  H   H146      1.0  0.7858897184088462  0.19930688805697655  0.5626802605421182  1.0000
  H   H147      1.0  0.7628557462328748  0.19829125692991295  0.6006189486507492  1.0000
  H   H148      1.0  0.7621101037955612  0.24259283012588645  0.6114842505958406  1.0000
  H   H149      1.0  0.805723265647043  0.20227789008210945  0.619360977760057  1.0000
  H   H150      1.0  0.8174070159971253  0.2021843896630665  0.6933881160528386  1.0000
  H   H151      1.0  0.8318804473915332  0.2433748029218398  0.6649825585836732  1.0000
  H   H152      1.0  0.8204917288346687  0.24345864420301283  0.5935175592834578  1.0000
  H   H153      1.0  0.792082159747163  0.21587037132117748  0.46014536116148586  1.0000
  H   H154      1.0  0.7948371786293927  0.19642914050394664  0.41178190394692554  1.0000
  H   H155      1.0  0.820612262464178  0.17688458106010377  0.5172102230151739  1.0000
  H   H156      1.0  0.8224519857446215  0.1986830488862495  0.5569885762601453  1.0000
  H   H157      1.0  0.7625797826713168  0.16789782858291177  0.3655999653518953  1.0000
  H   H158      1.0  0.7868959450487817  0.17240718939136035  0.35959814595115236  1.0000
  H   H159      1.0  0.791330793706736  0.1642583595080283  0.505481476705325  1.0000
  H   H160      1.0  0.7666131851070854  0.16089079071285656  0.5133123884542685  1.0000
  H   H161      1.0  0.8365353400009689  0.17045057265972316  0.4489663998349111  1.0000
  H   H162      1.0  0.8521868737796393  0.15297329505041493  0.4731428420481213  1.0000
  H   H163      1.0  0.8179103049538169  0.12384945029521628  0.47582833023565285  1.0000
  H   H164      1.0  0.8019733790845661  0.1420004346210996  0.45262458453131227  1.0000
  H   H165      1.0  0.8071349271229666  0.15249601872223328  0.3564686006617455  1.0000
  H   H166      1.0  0.8208872476045451  0.15157668843385258  0.2836872892381142  1.0000
  H   H167      1.0  0.8388400777691538  0.1916967168906205  0.3217154936196629  1.0000
  H   H168      1.0  0.825993317185091  0.19192975096262085  0.3935156503039126  1.0000
  C   C265      1.0  0.8413373696492372  0.3609561794328108  0.10813283827443168  1.0000
  C   C266      1.0  0.8477223676846093  0.3493054095984968  0.08985847882717819  1.0000
  C   C267      1.0  0.8397701613471152  0.33959495339394213  0.06465859072202683  1.0000
  C   C268      1.0  0.8253522462949624  0.3413150705144823  0.05795473818879526  1.0000
  C   C269      1.0  0.8194146687177617  0.3535166771937213  0.07674187786083332  1.0000
  C   C270      1.0  0.8275226244982462  0.36337186667057914  0.09865856282227818  1.0000
  H   H169      1.0  0.8586598247667004  0.34766803044300765  0.09617677701957518  1.0000
  H   H170      1.0  0.8454509769266497  0.33055023270934714  0.051443662825981  1.0000
  H   H171      1.0  0.8083780037486922  0.3560511353718874  0.07126446875182876  1.0000
  H   H172      1.0  0.8217650119478077  0.37249416005289554  0.11173252020979217  1.0000
  C   C271      1.0  0.7965852401723824  0.33020247046860035  0.091761580692358  1.0000
  C   C272      1.0  0.7999667877492945  0.3297946385910101  0.04376711378387976  1.0000
  C   C273      1.0  0.7888738434852455  0.3281702966938984  0.01331716090313173  1.0000
  C   C274      1.0  0.7751013513968732  0.3287896652820665  0.02717227697527458  1.0000
  C   C275      1.0  0.7719795088455509  0.330132772679095  0.0741159497131565  1.0000
  C   C276      1.0  0.7827909838107915  0.3308177696616509  0.10670938856453145  1.0000
  C   C277      1.0  0.8159467115452896  0.3313337835645944  0.02561275548201399  1.0000
  C   C278      1.0  0.8203681783042608  0.31510537881458134  0.029236966285859013  1.0000
  C   C279      1.0  0.8182889196704306  0.3063996245514179  0.991350431411158  1.0000
  C   C280      1.0  0.821810829782172  0.29240296793396153  0.9940359195986895  1.0000
  C   C281      1.0  0.8265266380189943  0.28651962271922515  0.03517534895776269  1.0000
  C   C282      1.0  0.8285428828239806  0.2947061195783232  0.07359964522565865  1.0000
  C   C283      1.0  0.8258329472518259  0.30907942507740566  0.07120737569587336  1.0000
  C   C284      1.0  0.8089919926736657  0.3511628665455886  0.9670682613165489  1.0000
  C   C285      1.0  0.810602874422293  0.35821145459863474  0.924974467468942  1.0000
  C   C286      1.0  0.8202509887522079  0.35411809606818684  0.8908490316160973  1.0000
  C   C287      1.0  0.8284521967596112  0.34241795618431203  0.9014993535356777  1.0000
  C   C288      1.0  0.8270367041444372  0.33546683562290475  0.9433464489933537  1.0000
  C   C289      1.0  0.8169597199389016  0.33925152631555733  0.9765696735915947  1.0000
  C   C290      1.0  0.8215233243702909  0.36313679615518013  0.8431551843170632  1.0000
  C   C291      1.0  0.7761913811814737  0.3686900377108903  0.8054737673865029  1.0000
  C   C292      1.0  0.7851949036974845  0.3798475228263984  0.8066191527683241  1.0000
  C   C293      1.0  0.7992247164564297  0.3783723555211902  0.8182809380866204  1.0000
  C   C294      1.0  0.8051582194034906  0.365263947932757  0.8269294787850486  1.0000
  C   C295      1.0  0.7958337751967532  0.353937206924469  0.82459994113156  1.0000
  C   C296      1.0  0.781537100491925  0.3555064234572377  0.8150914803310876  1.0000
  C   C297      1.0  0.8302553553075349  0.3549609991008428  0.8021433391224382  1.0000
  C   C298      1.0  0.8449503475419878  0.3546542739096341  0.8040006255723452  1.0000
  C   C299      1.0  0.852910236182072  0.34889045774412614  0.7679791363797472  1.0000
  C   C300      1.0  0.8461553757016993  0.3422567272592366  0.7307875919663351  1.0000
  C   C301      1.0  0.8316811559202504  0.3414426692794818  0.7304351656950054  1.0000
  C   C302      1.0  0.8239706187126192  0.34777354590067494  0.7652443085142296  1.0000
  C   C303      1.0  0.8325607339273011  0.3862592892468195  0.81266678758434  1.0000
  C   C304      1.0  0.8414159029937787  0.3977083015293372  0.816846563162309  1.0000
  C   C305      1.0  0.8466582180656108  0.4010989235126693  0.8607624008326897  1.0000
  C   C306      1.0  0.8430108105245021  0.3930756877589715  0.8989301660176849  1.0000
  C   C307      1.0  0.8343722337178352  0.3817607927145  0.8943133818632673  1.0000
  C   C308      1.0  0.8290906118262387  0.3778428085478754  0.8511164937863989  1.0000
  H   H173      1.0  0.8049407937245043  0.33041236227049187  0.11801698548014151  1.0000
  H   H174      1.0  0.7909673154435845  0.3268694081247197  0.9769009542866446  1.0000
  H   H175      1.0  0.7670390115357986  0.32703557959147467  0.0009469987794628043  1.0000
  H   H176      1.0  0.7806794408323716  0.3320641459650653  0.1432193405691922  1.0000
  H   H177      1.0  0.8126656102570069  0.3101426087047674  0.9605730451359444  1.0000
  H   H178      1.0  0.8196069602865074  0.2859792703673547  0.964104356374667  1.0000
  H   H179      1.0  0.8324297877140053  0.2904832958223307  0.10609088045834801  1.0000
  H   H180      1.0  0.8265905786879818  0.3150958507303624  0.10345120768608934  1.0000
  H   H181      1.0  0.8010441189208196  0.3552203751233997  0.990899325783856  1.0000
  H   H182      1.0  0.8043106175438821  0.3674115453486933  0.9191700067801435  1.0000
  H   H183      1.0  0.8362340741712959  0.3386289206441864  0.8775308428225519  1.0000
  H   H184      1.0  0.8342308888194878  0.3272288057237076  0.949838140911245  1.0000
  H   H185      1.0  0.7806627863184293  0.3902209808382285  0.7997397919519703  1.0000
  H   H186      1.0  0.8050705494053908  0.388005739038799  0.8224959562917223  1.0000
  H   H187      1.0  0.799715042556077  0.3436135983742947  0.8331815208384357  1.0000
  H   H188      1.0  0.7750030508254047  0.3459105138973512  0.8164694670519863  1.0000
  H   H189      1.0  0.8502457841176847  0.3605188980338368  0.8306581487357158  1.0000
  H   H190      1.0  0.8643324131885275  0.3498120532728799  0.7667914598453666  1.0000
  H   H191      1.0  0.8262179096353204  0.3367541413389876  0.7014128622510134  1.0000
  H   H192      1.0  0.8125476690087415  0.34753670623563054  0.7594187022491514  1.0000
  H   H193      1.0  0.8284104180151962  0.38432977720387473  0.7784567694263761  1.0000
  H   H194      1.0  0.8448371855442266  0.40367698853912914  0.7858964880141439  1.0000
  H   H195      1.0  0.8472897899798578  0.3950115890633017  0.9334362222435656  1.0000
  H   H196      1.0  0.8333613932996891  0.37549639559623915  0.9255066311386496  1.0000
  C   C309      1.0  0.8447706323191686  0.34336851212369585  0.6075828917722219  1.0000
  C   C310      1.0  0.8489888261698005  0.3351277680304903  0.5700706394518998  1.0000
  C   C311      1.0  0.8395249858222448  0.33112877710075994  0.5358429999803695  1.0000
  C   C312      1.0  0.8255786479687157  0.33512200680973236  0.5393284958038193  1.0000
  C   C313      1.0  0.8217078756639733  0.34397847495042033  0.5769077091156939  1.0000
  C   C314      1.0  0.8311898345505415  0.3484374966395365  0.6097926044934586  1.0000
  H   H197      1.0  0.8596215672312975  0.3310191015609028  0.569644203663591  1.0000
  H   H198      1.0  0.842934279942552  0.3250449437508057  0.5059783977478997  1.0000
  H   H199      1.0  0.8109499201844758  0.34741224549869315  0.5791667615149168  1.0000
  H   H200      1.0  0.8279734357469204  0.3556552340266856  0.6365629040636546  1.0000
  C   C315      1.0  0.7959332942450574  0.32228558571007476  0.5619260683214728  1.0000
  C   C316      1.0  0.7984870267312952  0.3283308840542136  0.5181512011596239  1.0000
  C   C317      1.0  0.7870714773483124  0.33105192217042456  0.48962229449549316  1.0000
  C   C318      1.0  0.7735876053749766  0.3286502995192875  0.503659432882551  1.0000
  C   C319      1.0  0.771140010372693  0.32335201080886755  0.5480369489683735  1.0000
  C   C320      1.0  0.7824682343631078  0.3203197288862901  0.5774257757345485  1.0000
  C   C321      1.0  0.814404045962383  0.3296185155462654  0.5006814308898159  1.0000
  C   C322      1.0  0.8172194823172158  0.3138041568561194  0.48080811344954  1.0000
  C   C323      1.0  0.812753305779601  0.30985834777555143  0.43590195795672304  1.0000
  C   C324      1.0  0.8165677899968777  0.29724962512847625  0.416670056330267  1.0000
  C   C325      1.0  0.8249982278176524  0.2881197710431768  0.44178395242521395  1.0000
  C   C326      1.0  0.8277234990508016  0.29102774425848377  0.48845576353739223  1.0000
  C   C327      1.0  0.8231968335426567  0.3035769149311981  0.5084136632827871  1.0000
  C   C328      1.0  0.8110669813006322  0.35533631464600596  0.47122916739480164  1.0000
  C   C329      1.0  0.8130206002696779  0.3659430950002206  0.43988437482274745  1.0000
  C   C330      1.0  0.8197958127319608  0.36336808212827115  0.3978716390175464  1.0000
  C   C331      1.0  0.8261104611971576  0.35058283586313926  0.3906398519298631  1.0000
  C   C332      1.0  0.8250507920274472  0.340326129128435  0.42442695856223134  1.0000
  C   C333      1.0  0.8167856277716593  0.34205897260448614  0.463493410739117  1.0000
  C   C334      1.0  0.8187576712860745  0.3751256422862354  0.35724393845867064  1.0000
  C   C335      1.0  0.7731324117862814  0.3727444693031451  0.34050333814424355  1.0000
  C   C336      1.0  0.779216901897497  0.3841602541784957  0.3619171108165011  1.0000
  C   C337      1.0  0.7932922861466776  0.3855620973263831  0.3667523992591431  1.0000
  C   C338      1.0  0.8021657852969384  0.3753555090547142  0.34801741867526187  1.0000
  C   C339      1.0  0.7959113863619507  0.3635163833451798  0.3278801339577601  1.0000
  C   C340      1.0  0.781773536385832  0.3624152668430646  0.3220978761240555  1.0000
  C   C341      1.0  0.8276691677112796  0.37247863569224016  0.3099278921225019  1.0000
  C   C342      1.0  0.8420294666831182  0.37027876873587134  0.312145710647979  1.0000
  C   C343      1.0  0.8499018315018833  0.36835072374959543  0.27274973990740026  1.0000
  C   C344      1.0  0.8441807210112074  0.368515797870369  0.22863724837761748  1.0000
  C   C345      1.0  0.8300659985486093  0.3710458111459007  0.2256285852992767  1.0000
  C   C346      1.0  0.8221716914249373  0.3735120037151755  0.2652208574729861  1.0000
  C   C347      1.0  0.8223915542896458  0.40168524402689265  0.3457981904446994  1.0000
  C   C348      1.0  0.8286286498951723  0.41423555087663805  0.35631000883964725  1.0000
  C   C349      1.0  0.8368539338793243  0.41571370650107775  0.3959755856777932  1.0000
  C   C350      1.0  0.8390043099744852  0.40449333518805686  0.4241238719688879  1.0000
  C   C351      1.0  0.8333497622892319  0.3916219663016129  0.41330438543906933  1.0000
  C   C352      1.0  0.8246325456072906  0.38997814777870304  0.37383264305015473  1.0000
  H   H201      1.0  0.8045658472867703  0.3194901248316607  0.5841289234152374  1.0000
  H   H202      1.0  0.7888857943467791  0.335279237399927  0.45480610315084247  1.0000
  H   H203      1.0  0.7648768138962758  0.33181923496632076  0.4816645092888709  1.0000
  H   H204      1.0  0.7810399924972794  0.31612400383348993  0.6126225874522351  1.0000
  H   H205      1.0  0.8074003713339352  0.31773507516485944  0.414967837439745  1.0000
  H   H206      1.0  0.8139993030076095  0.29515200539499015  0.3815824967566925  1.0000
  H   H207      1.0  0.8339563971894701  0.2837279842453161  0.5096189611307345  1.0000
  H   H208      1.0  0.825493696964141  0.3059614245064612  0.5451717233824639  1.0000
  H   H209      1.0  0.8050115040442124  0.35759427052114034  0.5026303481702685  1.0000
  H   H210      1.0  0.8080323494033862  0.3758954447910386  0.44765184984285167  1.0000
  H   H211      1.0  0.831265705968703  0.34804228047277985  0.35786068443349744  1.0000
  H   H212      1.0  0.8305929977778084  0.33047457158445376  0.4169625701354706  1.0000
  H   H213      1.0  0.7727388314488487  0.39209109494530836  0.3785199124588383  1.0000
  H   H214      1.0  0.7969934763498585  0.3948045383682302  0.3848353912410647  1.0000
  H   H215      1.0  0.8021658829451205  0.3549103959714673  0.31557446584174464  1.0000
  H   H216      1.0  0.7777785859735814  0.352970554704866  0.30452731194064714  1.0000
  H   H217      1.0  0.8467328553371344  0.3706288568330351  0.3470179377697711  1.0000
  H   H218      1.0  0.8609952421900482  0.366589137839685  0.27771895033314753  1.0000
  H   H219      1.0  0.8249330004373331  0.3710579902014661  0.19198456373306827  1.0000
  H   H220      1.0  0.8113846737339635  0.37630416083160684  0.2587256412923817  1.0000
  H   H221      1.0  0.8157650103667886  0.40133299384839977  0.31396599233939637  1.0000
  H   H222      1.0  0.8271524889762888  0.4236170920893307  0.3342861862917182  1.0000
  H   H223      1.0  0.8456156146249616  0.4055030377922432  0.4553206455069837  1.0000
  H   H224      1.0  0.836241793566327  0.3827505640997927  0.43324818813361116  1.0000
  C   C353      1.0  0.8226175720852484  0.7986810782332714  0.028339583271172464  1.0000
  C   C354      1.0  0.8310957054754876  0.8092739790341166  0.013137423504753443  1.0000
  C   C355      1.0  0.8256096310453664  0.8226120528548482  0.007597282519452353  1.0000
  C   C356      1.0  0.8115139536814372  0.825423706843684  0.015257273381027964  1.0000
  C   C357      1.0  0.8034454462326766  0.8149429614130782  0.03416459041158941  1.0000
  C   C358      1.0  0.80880067423012  0.8016113970362686  0.04037183908589044  1.0000
  H   H225      1.0  0.8422963808356237  0.8076527851215423  0.004658047416563615  1.0000
  H   H226      1.0  0.8325705181251422  0.830625400666764  0.9939548615562837  1.0000
  H   H227      1.0  0.7927427343715558  0.8170803867866121  0.04318208617347263  1.0000
  H   H228      1.0  0.8019486278277375  0.7931896688553774  0.052904117294370834  1.0000
  C   C359      1.0  0.7868947425053755  0.8295316180875983  0.9460460342317386  1.0000
  C   C360      1.0  0.7901636493904488  0.8399398574144287  0.9785467849737537  1.0000
  C   C361      1.0  0.7803805904149134  0.8507211414117147  0.9840199649675023  1.0000
  C   C362      1.0  0.7677928499701292  0.8504145182347934  0.9602840555934542  1.0000
  C   C363      1.0  0.7647161106773602  0.8397341764392392  0.9296687854030522  1.0000
  C   C364      1.0  0.774376721884545  0.8292468607978086  0.9218132038151154  1.0000
  C   C365      1.0  0.8052834139209827  0.8405520713670845  0.00339988562791671  1.0000
  C   C366      1.0  0.8128014575731051  0.850143987443672  0.9637836484677571  1.0000
  C   C367      1.0  0.8111477683179267  0.8648096724499696  0.9638188910948899  1.0000
  C   C368      1.0  0.8168057509238412  0.8730720909829052  0.9289956512248126  1.0000
  C   C369      1.0  0.8242144444123337  0.8670703088164279  0.8933865007696703  1.0000
  C   C370      1.0  0.8254362839522211  0.8529637712674347  0.8903767804125157  1.0000
  C   C371      1.0  0.8196552115607926  0.8443781943882864  0.9248969336892495  1.0000
  C   C372      1.0  0.7945003198011451  0.8452285610554996  0.08522900732699264  1.0000
  C   C373      1.0  0.7936794797494096  0.8527288157893352  0.126077679157992  1.0000
  C   C374      1.0  0.804179633427122  0.8618085583590421  0.1405532358265838  1.0000
  C   C375      1.0  0.8159160678925835  0.8627567076600633  0.11124194284010137  1.0000
  C   C376      1.0  0.8167001835963724  0.8557154137863666  0.06898568048141158  1.0000
  C   C377      1.0  0.8053340141953158  0.847480983674722  0.05420668479320502  1.0000
  C   C378      1.0  0.8033893749542245  0.869307788663119  0.19119301432766198  1.0000
  C   C379      1.0  0.7611378289070606  0.87782180727411  0.24339263150564497  1.0000
  C   C380      1.0  0.7719471843452811  0.8762513896315616  0.27510077556344  1.0000
  C   C381      1.0  0.7852267029068886  0.873831784489382  0.2595242392232145  1.0000
  C   C382      1.0  0.7884837570473018  0.8734261624948877  0.21187585491318195  1.0000
  C   C383      1.0  0.7777503509435905  0.8772562300715386  0.18117564999138958  1.0000
  C   C384      1.0  0.7641224849159525  0.8786477219505591  0.1961516519652694  1.0000
  C   C385      1.0  0.8107618010323653  0.883958055575002  0.19544045574972627  1.0000
  C   C386      1.0  0.810948986103733  0.8925821420277726  0.1567567385035046  1.0000
  C   C387      1.0  0.8186270167118238  0.9047464321389236  0.15748273662244358  1.0000
  C   C388      1.0  0.8256118174619724  0.9092884566726254  0.1972769490496248  1.0000
  C   C389      1.0  0.8239403985097463  0.901485778923154  0.23633917211125444  1.0000
  C   C390      1.0  0.8168108534670907  0.8889221291224196  0.23644666212400997  1.0000
  C   C391      1.0  0.8249916373320487  0.8561592777348818  0.22499245587952682  1.0000
  C   C392      1.0  0.831515732567533  0.8448079143747155  0.243795807160046  1.0000
  C   C393      1.0  0.8240748791880687  0.8333117286449379  0.259130226651868  1.0000
  C   C394      1.0  0.809589405907195  0.8338055145159623  0.2551368845714324  1.0000
  C   C395      1.0  0.8031016298554913  0.8454016493086115  0.23750217880664212  1.0000
  C   C396      1.0  0.8106788170144696  0.856980479062679  0.22149215815268125  1.0000
  H   H229      1.0  0.7949260344188324  0.8214140557143013  0.9391032366865454  1.0000
  H   H230      1.0  0.7822060349563698  0.8595812774347116  0.007015779171758441  1.0000
  H   H231      1.0  0.7601154083299213  0.8586573249836174  0.9653026056971876  1.0000
  H   H232      1.0  0.7730249542414565  0.821226297477268  0.8969847729999455  1.0000
  H   H233      1.0  0.8052578311935595  0.8699623673815928  0.9913151887840249  1.0000
  H   H234      1.0  0.8158525525020446  0.8843515745677591  0.9311489757426364  1.0000
  H   H235      1.0  0.8308587043380882  0.8485069741613332  0.861121875629446  1.0000
  H   H236      1.0  0.8202910352549112  0.8330550736794928  0.9207911676282596  1.0000
  H   H237      1.0  0.7859045108444724  0.8383784424767194  0.0762104190436683  1.0000
  H   H238      1.0  0.7844656950956671  0.851273506677779  0.1472362952098069  1.0000
  H   H239      1.0  0.8246828372531624  0.8692611107229049  0.12155851708073262  1.0000
  H   H240      1.0  0.8257997555212522  0.857415650846941  0.046240441356070854  1.0000
  H   H241      1.0  0.7697299547962377  0.8751774578293774  0.31115186856282956  1.0000
  H   H242      1.0  0.7935690560579848  0.8720171062594984  0.28516395531498523  1.0000
  H   H243      1.0  0.7793483327609632  0.8787086746670624  0.14469565421979186  1.0000
  H   H244      1.0  0.7559826057528031  0.8795191394549381  0.16957765382820394  1.0000
  H   H245      1.0  0.8055044760778926  0.8898402730081705  0.12420770536231718  1.0000
  H   H246      1.0  0.8203201786086967  0.9104702625645825  0.1251011059601377  1.0000
  H   H247      1.0  0.8286112220994875  0.9048314543684961  0.2677826440392809  1.0000
  H   H248      1.0  0.8164610478483466  0.8834900260975738  0.26924239365512814  1.0000
  H   H249      1.0  0.8317447505462562  0.8646279004744682  0.21151602769015443  1.0000
  H   H250      1.0  0.8429292794660684  0.8449166527217804  0.24596322872872303  1.0000
  H   H251      1.0  0.8030672214590323  0.8247729531520144  0.2665103851997811  1.0000
  H   H252      1.0  0.7916516678751562  0.8455502271492679  0.23637370988584475  1.0000
  C   C397      1.0  0.8006292808153344  0.7787465861166255  0.562045893253725  1.0000
  C   C398      1.0  0.8133456553236639  0.783985695768145  0.5486924618330467  1.0000
  C   C399      1.0  0.8144335432684359  0.7976026023421071  0.5329002406147675  1.0000
  C   C400      1.0  0.8024540715575754  0.8059342214673243  0.5271415953412418  1.0000
  C   C401      1.0  0.789896233832476  0.8005483599662574  0.5440228137379295  1.0000
  C   C402      1.0  0.7887201957261321  0.7871677975816171  0.5608723137701974  1.0000
  H   H253      1.0  0.8230883417090591  0.7777425930104682  0.5484774818075356  1.0000
  H   H254      1.0  0.8247187930582871  0.801750173602286  0.5239063221704362  1.0000
  H   H255      1.0  0.7804250229429811  0.8070321725750479  0.5458201877217105  1.0000
  H   H256      1.0  0.7784259096393744  0.7838322984586678  0.5738028336652803  1.0000
  C   C403      1.0  0.7803897704570336  0.8172637018961157  0.4537276787605739  1.0000
  C   C404      1.0  0.7877675147461957  0.8256429983382878  0.4850654228072015  1.0000
  C   C405      1.0  0.7809287930776749  0.8379471630366732  0.4998919960420376  1.0000
  C   C406      1.0  0.7674028061542731  0.8408938992139087  0.4848892096715367  1.0000
  C   C407      1.0  0.7603172828139643  0.8318055932115278  0.45692770930424664  1.0000
  C   C408      1.0  0.7667414482086984  0.8198955808161488  0.4413821864758982  1.0000
  C   C409      1.0  0.8031101987196752  0.8212139532046067  0.5026338724329819  1.0000
  C   C410      1.0  0.8117440457835  0.8215245942182232  0.454573501811765  1.0000
  C   C411      1.0  0.8132748422425473  0.8338222966709347  0.43001643922551874  1.0000
  C   C412      1.0  0.8203922963868291  0.8345555245215261  0.38806714014915705  1.0000
  C   C413      1.0  0.8261334985055144  0.8226851475297247  0.3685955886581969  1.0000
  C   C414      1.0  0.8239901969164961  0.809911127177883  0.38954733048874135  1.0000
  C   C415      1.0  0.81693867964595  0.80940128692873  0.43141204725998394  1.0000
  C   C416      1.0  0.8020808333773893  0.8312814566314859  0.5874311575775957  1.0000
  C   C417      1.0  0.8040424171738464  0.841929886452852  0.6199107627433312  1.0000
  C   C418      1.0  0.8122084426770473  0.8534212433880086  0.6090983247389392  1.0000
  C   C419      1.0  0.820306231447478  0.8526350068764853  0.5683437507223849  1.0000
  C   C420      1.0  0.8192764629788439  0.8418119295221608  0.5374641608284857  1.0000
  C   C421      1.0  0.8088718901045402  0.8313083204290163  0.5440721534159156  1.0000
  C   C422      1.0  0.810003788144454  0.8682719287260863  0.6362598174703111  1.0000
  C   C423      1.0  0.7652374082756226  0.8727723451869627  0.6026418754481809  1.0000
  C   C424      1.0  0.7695418091780968  0.8694966489088786  0.6480061850937265  1.0000
  C   C425      1.0  0.7835507418030274  0.8689906233409447  0.6595481454797708  1.0000
  C   C426      1.0  0.7936667381948158  0.871371204742123  0.6258843880423678  1.0000
  C   C427      1.0  0.7893068743634003  0.8734602838196939  0.5795473818879527  1.0000
  C   C428      1.0  0.775211846750033  0.8745725602630058  0.5679701788747754  1.0000
  C   C429      1.0  0.8203346988428002  0.8806195104968687  0.6199741994721705  1.0000
  C   C430      1.0  0.83467397845598  0.8792972946441542  0.6213416134049294  1.0000
  C   C431      1.0  0.8432489586112698  0.889573587378404  0.6059264882969729  1.0000
  C   C432      1.0  0.8380104358079901  0.9023939009026648  0.591889349909915  1.0000
  C   C433      1.0  0.8238772875818889  0.9044711489660096  0.5932250454782543  1.0000
  C   C434      1.0  0.8151405554151636  0.8940301235199097  0.6084674817132593  1.0000
  C   C435      1.0  0.8113726612454774  0.87819131285467  0.7203628228604058  1.0000
  C   C436      1.0  0.8181019633151044  0.8791950978817861  0.7624354711317327  1.0000
  C   C437      1.0  0.8281082079480248  0.8695338511778599  0.775824145179544  1.0000
  C   C438      1.0  0.8306250445315448  0.8581577873390102  0.7475102185409244  1.0000
  C   C439      1.0  0.8236357534875417  0.8569411093846223  0.7055397738882829  1.0000
  C   C440      1.0  0.8142234177374713  0.8670225641582517  0.690917607890818  1.0000
  H   H257      1.0  0.7848695084209556  0.8078124437517076  0.4386156402459609  1.0000
  H   H258      1.0  0.7862450404683538  0.84531063191275  0.5232226152040568  1.0000
  H   H259      1.0  0.7624836056016528  0.8507190632135045  0.4950637561248221  1.0000
  H   H260      1.0  0.7613090181840622  0.812506181732108  0.4189537785684828  1.0000
  H   H261      1.0  0.8082986176510597  0.8432620739343992  0.4420658934422776  1.0000
  H   H262      1.0  0.8220799426970544  0.8443990588624591  0.3707594859641607  1.0000
  H   H263      1.0  0.8278571290799097  0.8003816685420877  0.37263791799034734  1.0000
  H   H264      1.0  0.814847587427994  0.7986592702750603  0.4435460837818619  1.0000
  H   H265      1.0  0.794073166044531  0.8237797386044299  0.5971193557764464  1.0000
  H   H266      1.0  0.7982638291662465  0.8423100228407787  0.6536414811722868  1.0000
  H   H267      1.0  0.826006194982125  0.861449533787847  0.557390342209461  1.0000
  H   H268      1.0  0.8250746279776386  0.8430928141233667  0.5056400685274233  1.0000
  H   H269      1.0  0.7620553107646569  0.867261875383863  0.6752275902912245  1.0000
  H   H270      1.0  0.7870525234297211  0.8651897216702031  0.6928594766458441  1.0000
  H   H271      1.0  0.7969477715584786  0.8749860454121667  0.5524563744108467  1.0000
  H   H272      1.0  0.7727273701044642  0.875786851775048  0.5313248951819242  1.0000
  H   H273      1.0  0.8394679509573938  0.8695061500803698  0.6287637106791306  1.0000
  H   H274      1.0  0.8546006800361214  0.8878630137028027  0.6032339515840147  1.0000
  H   H275      1.0  0.8197799058702367  0.9148250602345978  0.5842875152373357  1.0000
  H   H276      1.0  0.8043627359852563  0.897151723499525  0.6119635503248488  1.0000
  H   H277      1.0  0.8040294957489583  0.8861290408884382  0.7096525884746993  1.0000
  H   H278      1.0  0.8165413059424239  0.8882939257740701  0.7840215802506705  1.0000
  H   H279      1.0  0.8383691651535221  0.8502111624724188  0.7566592045446406  1.0000
  H   H280      1.0  0.8268464802256075  0.848041708837584  0.6843765762949408  1.0000
  C   C441      1.0  0.8436615476326599  0.6881375026844925  0.9016508968323493  1.0000
  C   C442      1.0  0.8493462679652731  0.6992290232200875  0.9258238147828464  1.0000
  C   C443      1.0  0.8407751452695988  0.7078942757141911  0.9527104150225811  1.0000
  C   C444      1.0  0.8262676481409298  0.7056008705543055  0.954352721446977  1.0000
  C   C445      1.0  0.820829692558158  0.6948739562905824  0.9289145931824069  1.0000
  C   C446      1.0  0.8291170991410621  0.6862509210547391  0.9028350491040168  1.0000
  H   H281      1.0  0.8608561555323969  0.70117484415826  0.9261868138423158  1.0000
  H   H282      1.0  0.8453214195102654  0.7164356440750657  0.9727669941239484  1.0000
  H   H283      1.0  0.8099023849718399  0.6919171439909789  0.932237972921045  1.0000
  H   H284      1.0  0.8242526329759327  0.6778426815316964  0.8825282473500056  1.0000
  C   C447      1.0  0.7946841159640756  0.7150026253412574  0.9364459426007203  1.0000
  C   C448      1.0  0.7999514869190125  0.7143638062727805  0.9816587089495941  1.0000
  C   C449      1.0  0.7902237004412667  0.7149935719629086  0.017899836048711534  1.0000
  C   C450      1.0  0.7758869173601335  0.7159673133000473  0.0100149267407732  1.0000
  C   C451      1.0  0.7711905305895694  0.7158697840596541  0.9647316751376336  1.0000
  C   C452      1.0  0.780445941429064  0.7150565342896291  0.9280123819278031  1.0000
  C   C453      1.0  0.8166546351309202  0.7139052697517674  0.9908535103685833  1.0000
  C   C454      1.0  0.8203885623522983  0.730416755064888  0.9933310670560304  1.0000
  C   C455      1.0  0.8167214650656267  0.7382849000026546  0.0326352013645275  1.0000
  C   C456      1.0  0.8179855410463029  0.7526211134899462  0.03230624668286845  1.0000
  C   C457      1.0  0.8222386025956055  0.7595780109089942  0.9928059519117491  1.0000
  C   C458      1.0  0.8260844318948894  0.7521243992492586  0.9534751800313663  1.0000
  C   C459      1.0  0.8249067818900564  0.7377302746156944  0.9531192294973234  1.0000
  C   C460      1.0  0.8143246641262122  0.6916707784267038  0.04203106197131017  1.0000
  C   C461      1.0  0.8165977987683879  0.6838033141499501  0.08184994423748447  1.0000
  C   C462      1.0  0.8248084323233051  0.6887767914944322  0.11950563405023773  1.0000
  C   C463      1.0  0.8314272233530331  0.701831365519126  0.11304636534930891  1.0000
  C   C464      1.0  0.8299058665412596  0.70905520698309  0.07122323487808319  1.0000
  C   C465      1.0  0.820735584072217  0.7046939126027422  0.03565531829668647  1.0000
  C   C466      1.0  0.8247106521006059  0.6800552211532989  0.16810098775133295  1.0000
  C   C467      1.0  0.7791691757750576  0.676994494954431  0.18091414969806302  1.0000
  C   C468      1.0  0.7869113830288335  0.6650656416995386  0.1784439939623139  1.0000
  C   C469      1.0  0.8013081452026544  0.6656856463713073  0.17877351252600707  1.0000
  C   C470      1.0  0.808289510998717  0.6785941764447239  0.18126622354312127  1.0000
  C   C471      1.0  0.8000394985818159  0.6907716344248627  0.1837864238093992  1.0000
  C   C472      1.0  0.7855798345968661  0.6897838990739719  0.18155239367544093  1.0000
  C   C473      1.0  0.8335006082306873  0.6875221118585734  0.20956922496732971  1.0000
  C   C474      1.0  0.848155155840954  0.6894359973582235  0.2052470691757436  1.0000
  C   C475      1.0  0.8557785628116582  0.6961633544190162  0.24004845861699844  1.0000
  C   C476      1.0  0.8490398185532129  0.7006634410055669  0.2798980019687784  1.0000
  C   C477      1.0  0.8348270310641092  0.6982609864059985  0.28488941524961947  1.0000
  C   C478      1.0  0.8273446920722659  0.6919242573440765  0.2514416951165416  1.0000
  C   C479      1.0  0.834281914213834  0.6564220820217936  0.1991039268401974  1.0000
  C   C480      1.0  0.8428319290548478  0.6448644383207265  0.1963253981170349  1.0000
  C   C481      1.0  0.8501190642733099  0.642015772076714  0.1546481721221396  1.0000
  C   C482      1.0  0.8477962606953965  0.6503251050541496  0.11570365943513404  1.0000
  C   C483      1.0  0.839883152901246  0.6622720082533443  0.1188490639067507  1.0000
  C   C484      1.0  0.8327698457866547  0.6654720249844313  0.16043395421855758  1.0000
  H   H285      1.0  0.8016998140711133  0.7142869128697921  0.906172525893508  1.0000
  H   H286      1.0  0.7935657424821579  0.7142386754816901  0.05447805302212881  1.0000
  H   H287      1.0  0.7686086343655958  0.7168600957077079  0.03898750869210779  1.0000
  H   H288      1.0  0.7765560248377575  0.7147246938593962  0.8911873608365737  1.0000
  H   H289      1.0  0.8125785162103325  0.7331155012101629  0.0636746165724746  1.0000
  H   H290      1.0  0.8139936430274852  0.7580986451588931  0.0620492266091025  1.0000
  H   H291      1.0  0.8298230132757279  0.7575442998376303  0.9218660677558149  1.0000
  H   H292      1.0  0.826417945333175  0.7321384867291866  0.9203647318399509  1.0000
  H   H293      1.0  0.8070792937419653  0.6877131026443772  0.015540729831058359  1.0000
  H   H294      1.0  0.8105883809203299  0.6741195286134751  0.08718074401761594  1.0000
  H   H295      1.0  0.8375387942176771  0.7067385664601329  0.1403816042324463  1.0000
  H   H296      1.0  0.8357753861995757  0.7189184846638103  0.06629631560489545  1.0000
  H   H297      1.0  0.7817500873813659  0.6549241205372082  0.17277275040407805  1.0000
  H   H298      1.0  0.8071420303495206  0.6561514257800602  0.17306949332453755  1.0000
  H   H299      1.0  0.8048981074287076  0.7011127252056325  0.18384281201281197  1.0000
  H   H300      1.0  0.7793283788211144  0.6988941444910884  0.17685878059387336  1.0000
  H   H301      1.0  0.8539110300782855  0.6854382859861282  0.1749701282058181  1.0000
  H   H302      1.0  0.8668253926243821  0.6979528806427603  0.2371448185675139  1.0000
  H   H303      1.0  0.829908363077483  0.7021771113254663  0.3158687417783049  1.0000
  H   H304      1.0  0.8166348976423715  0.6906496188118847  0.2604500630379974  1.0000
  H   H305      1.0  0.8295505559891583  0.65893237955245  0.23237754839523847  1.0000
  H   H306      1.0  0.8439920195915035  0.6382380207155749  0.22705203500917698  1.0000
  H   H307      1.0  0.8533943373631884  0.6481315511541412  0.08235849534701307  1.0000
  H   H308      1.0  0.8402603153247408  0.6691642808083622  0.08961706683131743  1.0000
  C   C485      1.0  0.8494072042509768  0.7003953304001354  0.39774124129715444  1.0000
  C   C486      1.0  0.8474048597234013  0.7105720032603692  0.4309820872089618  1.0000
  C   C487      1.0  0.8364560967913462  0.7095738436436733  0.46133303769586653  1.0000
  C   C488      1.0  0.8265057768683117  0.6989339313596346  0.45839027833026447  1.0000
  C   C489      1.0  0.8290615877759291  0.6882193320139163  0.4256357806728919  1.0000
  C   C490      1.0  0.840601152017407  0.68884733382709  0.3956020138301838  1.0000
  H   H309      1.0  0.8545612065981729  0.7194083827193385  0.4324446562349797  1.0000
  H   H310      1.0  0.8361402207072236  0.717265030662518  0.48932978069028965  1.0000
  H   H311      1.0  0.8213729114290782  0.6798541970081596  0.42182957694253226  1.0000
  H   H312      1.0  0.8417328354906657  0.6809666629096315  0.36873655916672876  1.0000
  C   C491      1.0  0.7958723329543334  0.6953139880386954  0.41890796315320994  1.0000
  C   C492      1.0  0.7984707102296736  0.692798247709226  0.4659850644774173  1.0000
  C   C493      1.0  0.7877007580182058  0.6865374685181255  0.492156239386353  1.0000
  C   C494      1.0  0.7747496167470415  0.6839728778941259  0.4726071541157003  1.0000
  C   C495      1.0  0.7721164994157504  0.6879145779159217  0.427101873961623  1.0000
  C   C496      1.0  0.7828665198477697  0.6932643999848092  0.39934125656899083  1.0000
  C   C497      1.0  0.8124852682568467  0.6988356681246912  0.4918038131150234  1.0000
  C   C498      1.0  0.8068035736739955  0.7140905161103052  0.503814500441936  1.0000
  C   C499      1.0  0.7987861332264182  0.7162780523533858  0.5444880164160846  1.0000
  C   C500      1.0  0.7934879670871032  0.7291381641711681  0.556174471573374  1.0000
  C   C501      1.0  0.7960380392031317  0.7404934516429069  0.5268173631716186  1.0000
  C   C502      1.0  0.8031214697530117  0.7384966662107534  0.48568569304474163  1.0000
  C   C503      1.0  0.8076881409174599  0.7253656468362022  0.47309702663284847  1.0000
  C   C504      1.0  0.8181640723968472  0.6754784290428663  0.5326464936994101  1.0000
  C   C505      1.0  0.8214038956549459  0.6678238194550428  0.5722451095460035  1.0000
  C   C506      1.0  0.8250744841847771  0.6746080581890387  0.6142684181393444  1.0000
  C   C507      1.0  0.82723501576039  0.6888494558765934  0.6126578300793681  1.0000
  C   C508      1.0  0.8246939526517449  0.6962701181265588  0.5729252922496695  1.0000
  C   C509      1.0  0.8185520031983138  0.6900628845257716  0.5344861588357507  1.0000
  C   C510      1.0  0.82420584210219  0.6649563437652926  0.6603270075394091  1.0000
  C   C511      1.0  0.7789227347475148  0.6689684481759074  0.6735112743498494  1.0000
  C   C512      1.0  0.7843208782853103  0.6573312685938941  0.651858204239359  1.0000
  C   C513      1.0  0.798589519253825  0.6558251407412952  0.6488907750347638  1.0000
  C   C514      1.0  0.8076006591252755  0.6657015731056795  0.668386996364717  1.0000
  C   C515      1.0  0.8017702104012587  0.6770319590099022  0.6916858971623165  1.0000
  C   C516      1.0  0.7874965685428268  0.6786291742242988  0.6941387840107706  1.0000
  C   C517      1.0  0.832464857147524  0.6694030952315781  0.7071433134228327  1.0000
  C   C518      1.0  0.844895598027002  0.6770079694339831  0.7050569498965614  1.0000
  C   C519      1.0  0.8523491575501754  0.6799988932004256  0.7455225343706254  1.0000
  C   C520      1.0  0.8474289901108398  0.6758760044829148  0.788624267354235  1.0000
  C   C521      1.0  0.8349552091739301  0.6684184141319567  0.7920639477624117  1.0000
  C   C522      1.0  0.8275822968963693  0.6656172413617966  0.7512917524322908  1.0000
  C   C523      1.0  0.8275846703898783  0.6385573687035903  0.678698989063821  1.0000
  C   C524      1.0  0.8357442727348222  0.6266832646533387  0.680105169886426  1.0000
  C   C525      1.0  0.8484063820306837  0.6264093010957893  0.6568133176142531  1.0000
  C   C526      1.0  0.8522938906568388  0.6374064514580539  0.6292641559844186  1.0000
  C   C527      1.0  0.8443863397797554  0.6493229200127165  0.6291196612131734  1.0000
  C   C528      1.0  0.8318670093492374  0.6502496431718993  0.6534793650874752  1.0000
  H   H313      1.0  0.8038612614951995  0.7005975357493681  0.39702581596635533  1.0000
  H   H314      1.0  0.7884693417329585  0.6849750277700708  0.5290623185199882  1.0000
  H   H315      1.0  0.7666714388031514  0.6793335833257791  0.49520120237064064  1.0000
  H   H316      1.0  0.7805893697038757  0.6961111799668112  0.36394708613935955  1.0000
  H   H317      1.0  0.7974703418881736  0.7078758437894482  0.5687102740445676  1.0000
  H   H318      1.0  0.7867532440149436  0.7304822684929125  0.5867650719247828  1.0000
  H   H319      1.0  0.8057124989509044  0.7469262305555496  0.46172423085704245  1.0000
  H   H320      1.0  0.8134638372158365  0.7238522181350958  0.44111081824697446  1.0000
  H   H321      1.0  0.8149185646426695  0.6700801780508223  0.5015589723054266  1.0000
  H   H322      1.0  0.819708554986606  0.6565613750419931  0.5708847441386712  1.0000
  H   H323      1.0  0.8297116890852894  0.6947767217719873  0.644890736855173  1.0000
  H   H324      1.0  0.8262645117893654  0.7078346025544253  0.5741552599366099  1.0000
  H   H325      1.0  0.7776161177986235  0.6496670370671975  0.6358404302074289  1.0000
  H   H326      1.0  0.8024753165861325  0.6469922167667833  0.6289504966029352  1.0000
  H   H327      1.0  0.8084627233475762  0.685596076466468  0.7042569422606432  1.0000
  H   H328      1.0  0.783044861217197  0.6879497277769719  0.7105089843140302  1.0000
  H   H329      1.0  0.8492969442728749  0.680316018641057  0.6721438604170905  1.0000
  H   H330      1.0  0.8620240908062382  0.6854827282101855  0.7429110557000731  1.0000
  H   H331      1.0  0.8318938744128058  0.6644856687987858  0.8263550239627815  1.0000
  H   H332      1.0  0.8180768345746324  0.6591382453742424  0.754650374798062  1.0000
  H   H333      1.0  0.8181665416720585  0.6385569606931228  0.7001088850470939  1.0000
  H   H334      1.0  0.8330554615163084  0.6183446746674802  0.7032031877093676  1.0000
  H   H335      1.0  0.8621800310726122  0.6373549431218849  0.6094859936374017  1.0000
  H   H336      1.0  0.8486976978821165  0.6585077666336142  0.6118719194943031  1.0000
  C   C529      1.0  0.6845025170966875  0.7767775742500465  0.2957684618192928  1.0000
  C   C530      1.0  0.6723258116366689  0.7840263589128742  0.2953349775055574  1.0000
  C   C531      1.0  0.672137320776549  0.7976605788392789  0.31032895321927495  1.0000
  C   C532      1.0  0.6839856375031969  0.8039413345483044  0.32964367501949343  1.0000
  C   C533      1.0  0.696886780671021  0.797463202870748  0.3194782916492626  1.0000
  C   C534      1.0  0.6969157594519074  0.7837409772103785  0.3047979753170283  1.0000
  H   H337      1.0  0.6628193949896927  0.7788020646831869  0.2864228219561745  1.0000
  H   H338      1.0  0.6619217875526711  0.8029380134590505  0.31167310701812606  1.0000
  H   H339      1.0  0.7068421844563093  0.8025152635652821  0.3277282382348171  1.0000
  H   H340      1.0  0.7069626513311309  0.7781452044288001  0.3050792114815493  1.0000
  C   C535      1.0  0.7028546736072695  0.8087529920260877  0.4214595293576362  1.0000
  C   C536      1.0  0.6957200765598959  0.8195364472055277  0.3980126095260782  1.0000
  C   C537      1.0  0.7003680204038544  0.8330068421696671  0.4059210550547143  1.0000
  C   C538      1.0  0.7124527567422699  0.8356044828760023  0.43035829270870846  1.0000
  C   C539      1.0  0.7198621632820073  0.8249260006019724  0.45082368628481806  1.0000
  C   C540      1.0  0.7150259504915362  0.8113737221570331  0.4459390581641898  1.0000
  C   C541      1.0  0.6826208664215851  0.8170057963632894  0.3634290195205051  1.0000
  C   C542      1.0  0.6701693253099934  0.8160723946637114  0.40265053925677574  1.0000
  C   C543      1.0  0.6650131011072566  0.8275679333308189  0.42741905760581966  1.0000
  C   C544      1.0  0.654986382843448  0.8259744559164829  0.4624149863488485  1.0000
  C   C545      1.0  0.651181670226893  0.8128776742617059  0.47781249014323846  1.0000
  C   C546      1.0  0.6566414470103876  0.8013785655185975  0.4549752677610807  1.0000
  C   C547      1.0  0.6657621303243616  0.8028801291663833  0.4179423151697668  1.0000
  C   C548      1.0  0.6920856276227814  0.8332584035506982  0.29851315762040764  1.0000
  C   C549      1.0  0.6911707029046138  0.844521089511766  0.26823410209285414  1.0000
  C   C550      1.0  0.6792443846188305  0.8521964848852618  0.26366595276387994  1.0000
  C   C551      1.0  0.6678284342440497  0.8475091132879939  0.29003025726950427  1.0000
  C   C552      1.0  0.6683140301284873  0.8361694362191242  0.31900745015076626  1.0000
  C   C553      1.0  0.680864690960536  0.8289928912593151  0.32550372361018465  1.0000
  C   C554      1.0  0.6793369391280131  0.8660404812109584  0.23007303300701426  1.0000
  C   C555      1.0  0.7216039797050933  0.8846456729189263  0.24260143452651003  1.0000
  C   C556      1.0  0.7163794442241115  0.8816844109506373  0.19980102600488733  1.0000
  C   C557      1.0  0.703137548666986  0.876345674410198  0.1937798231592212  1.0000
  C   C558      1.0  0.6946445899250842  0.8736467621277518  0.23232997084860899  1.0000
  C   C559      1.0  0.7000940921745759  0.8772198331234389  0.27606360413671244  1.0000
  C   C560      1.0  0.7134580616559594  0.882416787919599  0.2815269161948638  1.0000
  C   C561      1.0  0.6667145085189515  0.8764720072130909  0.24703249003593702  1.0000
  C   C562      1.0  0.652864229404303  0.8731789028120736  0.23540982403375832  1.0000
  C   C563      1.0  0.6419854112625635  0.8819948629099652  0.24507405724615844  1.0000
  C   C564      1.0  0.644084751482908  0.8946665076913357  0.2675084564001865  1.0000
  C   C565      1.0  0.6579449646014716  0.8981294250340272  0.2787966698708734  1.0000
  C   C566      1.0  0.668924347584797  0.889078908499581  0.270356413098801  1.0000
  C   C567      1.0  0.6733065153517739  0.8721539202654249  0.14408137522886436  1.0000
  C   C568      1.0  0.6726914268266981  0.8690347643963285  0.09631528054420771  1.0000
  C   C569      1.0  0.6751933588802621  0.855522006461046  0.08067284049124362  1.0000
  C   C570      1.0  0.677246625816958  0.8453762293756777  0.1136775608012602  1.0000
  C   C571      1.0  0.6775080096702097  0.8483137100413445  0.16077651255428996  1.0000
  C   C572      1.0  0.6761791447702263  0.8619516486349363  0.17753649631364019  1.0000
  H   H341      1.0  0.699355437304724  0.7981177831815294  0.4168462694659318  1.0000
  H   H342      1.0  0.6946196127981749  0.8420634095863695  0.39094293852320655  1.0000
  H   H343      1.0  0.7158742292629087  0.8466592742794841  0.4318067646838731  1.0000
  H   H344      1.0  0.7207540221775709  0.8026265153445963  0.4607198159837531  1.0000
  H   H345      1.0  0.6683185420346758  0.8380723423966301  0.41680397831337224  1.0000
  H   H346      1.0  0.6513110292925746  0.8353909864150956  0.48041339602565086  1.0000
  H   H347      1.0  0.6536361146499873  0.7905671743474479  0.4634158769594245  1.0000
  H   H348      1.0  0.6701564589103958  0.7930812354353256  0.40467699031692084  1.0000
  H   H349      1.0  0.7022410868651542  0.8282026800209007  0.3016236718911627  1.0000
  H   H350      1.0  0.7003185903690048  0.8480865130213708  0.2494934826886316  1.0000
  H   H351      1.0  0.6577001309148848  0.8530294109369528  0.2898892867609724  1.0000
  H   H352      1.0  0.6586029253504703  0.8330286219398924  0.3371492973199998  1.0000
  H   H353      1.0  0.7235364631456024  0.8832083466661454  0.17031105289884083  1.0000
  H   H354      1.0  0.7004874005642447  0.8727535098642072  0.1591028401917457  1.0000
  H   H355      1.0  0.6938489546739518  0.8755980491062014  0.3078630265987818  1.0000
  H   H356      1.0  0.7174554472983704  0.8834810690826935  0.316073149015676  1.0000
  H   H357      1.0  0.6504153891541185  0.8636226996628578  0.21688841377030274  1.0000
  H   H358      1.0  0.6312202725969114  0.8792543349377446  0.23609670283657969  1.0000
  H   H359      1.0  0.6599117140304518  0.9077492170591072  0.2993406545054895  1.0000
  H   H360      1.0  0.6789816616554717  0.8931697840583454  0.2806229428089034  1.0000
  H   H361      1.0  0.6719160661477387  0.8826724310054294  0.15433627487201293  1.0000
  H   H362      1.0  0.6712403247058926  0.8772793109759858  0.07108191194328002  1.0000
  H   H363      1.0  0.6790400786141031  0.8348447801967341  0.10233683581614515  1.0000
  H   H364      1.0  0.6790004292202265  0.8395636469866806  0.1829310852488823  1.0000
  C   C573      1.0  0.6804833284786501  0.7750685713331639  0.8193276441124693  1.0000
  C   C574      1.0  0.6689672458705372  0.7839865148477813  0.8232571970377943  1.0000
  C   C575      1.0  0.6709203495542815  0.7982722688578319  0.8290581334638794  1.0000
  C   C576      1.0  0.6842117972127636  0.8042850560810234  0.8306370031594359  1.0000
  C   C577      1.0  0.6956280796726826  0.7953173041072511  0.8218933073677488  1.0000
  C   C578      1.0  0.6936164606000184  0.7808872806178958  0.8175690370185346  1.0000
  H   H365      1.0  0.658227232464048  0.7798616093579526  0.8245083103010143  1.0000
  H   H366      1.0  0.6615821429035333  0.8049131752158672  0.8333506854486739  1.0000
  H   H367      1.0  0.7061810253982409  0.7996672966282916  0.8193276441124693  1.0000
  H   H368      1.0  0.7028566211461051  0.7746761947577178  0.8125751567537942  1.0000
  C   C579      1.0  0.7067980847399595  0.8169903949929652  0.8988103410854328  1.0000
  C   C580      1.0  0.7009181669272446  0.8248088699748332  0.8631835693167241  1.0000
  C   C581      1.0  0.707490512366002  0.8371578614277558  0.851250415769504  1.0000
  C   C582      1.0  0.7199731584361126  0.841048804225661  0.8724876228798254  1.0000
  C   C583      1.0  0.7253067604248364  0.8332650467060491  0.908435102555444  1.0000
  C   C584      1.0  0.7187950039160396  0.8211724163707698  0.9216969031455767  1.0000
  C   C585      1.0  0.6862622680240631  0.8206118718338808  0.8393947960019764  1.0000
  C   C586      1.0  0.6763447232762801  0.8278051025714189  0.8779396572972943  1.0000
  C   C587      1.0  0.6737864694597336  0.8422561415728493  0.8791414308825282  1.0000
  C   C588      1.0  0.6683842432477292  0.8481259717292574  0.9186343188477225  1.0000
  C   C589      1.0  0.6654111952391666  0.8403224165278339  0.9582258861688893  1.0000
  C   C590      1.0  0.666910704528763  0.8259551956636887  0.956735123041165  1.0000
  C   C591      1.0  0.6719095221670057  0.8198364710837936  0.9162977326688074  1.0000
  C   C592      1.0  0.6959250906653672  0.8247818901118238  0.7539737163571091  1.0000
  C   C593      1.0  0.6953811573563079  0.8313897943067476  0.7114252926194871  1.0000
  C   C594      1.0  0.684473746571719  0.8400454937958004  0.6991009459110912  1.0000
  C   C595      1.0  0.6728950181127025  0.8402693775885466  0.7296950705252133  1.0000
  C   C596      1.0  0.6728815522443355  0.8329921152171941  0.7717430489575473  1.0000
  C   C597      1.0  0.6848946687404129  0.8259010603557223  0.786351117904159  1.0000
  C   C598      1.0  0.6845073385663081  0.849812460155839  0.6526511633498505  1.0000
  C   C599      1.0  0.72714278578208  0.8586300607729979  0.6026101570837614  1.0000
  C   C600      1.0  0.7164449042992593  0.856108924284261  0.5714944415880715  1.0000
  C   C601      1.0  0.7029866441110245  0.8543370882373362  0.5869166152214546  1.0000
  C   C602      1.0  0.6997177929646038  0.8538073134226561  0.6352413055461685  1.0000
  C   C603      1.0  0.71040284222623  0.8584333515827783  0.6656345471856329  1.0000
  C   C604      1.0  0.7238875920555636  0.8602291216327063  0.6496238216791294  1.0000
  C   C605      1.0  0.6786825074558016  0.8650462992991396  0.6613278981499853  1.0000
  C   C606      1.0  0.6802750876577424  0.8718362356694936  0.7047503390405047  1.0000
  C   C607      1.0  0.6742472330905062  0.8845974851522559  0.7123768435520771  1.0000
  C   C608      1.0  0.667275403902311  0.891447944911671  0.6771095465801246  1.0000
  C   C609      1.0  0.6661651693701591  0.8852275046575289  0.6335179410793669  1.0000
  C   C610      1.0  0.6720579665996038  0.8724368210050494  0.6256905535931365  1.0000
  C   C611      1.0  0.6606525186020673  0.8414237075737598  0.6180252821917179  1.0000
  C   C612      1.0  0.6522232633264252  0.8314025149095686  0.5984902939719183  1.0000
  C   C613      1.0  0.6579049571020413  0.819062309905905  0.5824971897789814  1.0000
  C   C614      1.0  0.6721624454362506  0.8169780323210842  0.5821271421940853  1.0000
  C   C615      1.0  0.6808241643953349  0.8271458684871832  0.6010383359136314  1.0000
  C   C616      1.0  0.6752329155570287  0.8395090557092602  0.6199812479975971  1.0000
  H   H369      1.0  0.7020031575484389  0.8073041607341204  0.9095346725219925  1.0000
  H   H370      1.0  0.7027432354895287  0.8440207986373265  0.825361181877632  1.0000
  H   H371      1.0  0.7255543564536846  0.850518097216604  0.8623201249519665  1.0000
  H   H372      1.0  0.7228799438483606  0.8144107462483358  0.9493553169195234  1.0000
  H   H373      1.0  0.6771978566545654  0.8490574391982081  0.8507711160404957  1.0000
  H   H374      1.0  0.6674183452634815  0.8596517222251947  0.9168580904402214  1.0000
  H   H375      1.0  0.6653750608109674  0.8199281505394957  0.9888587776728577  1.0000
  H   H376      1.0  0.6736140585590532  0.808465086467159  0.9186237460595826  1.0000
  H   H377      1.0  0.7057325438192797  0.8195854803700694  0.7631473721998185  1.0000
  H   H378      1.0  0.704229746647602  0.8304520172557622  0.6885598761356231  1.0000
  H   H379      1.0  0.6630900674368599  0.8456209555546045  0.7203099589197063  1.0000
  H   H380      1.0  0.6634128718859835  0.8334203795023452  0.7921450058048176  1.0000
  H   H381      1.0  0.718378701536356  0.8554916994861579  0.5344086250560581  1.0000
  H   H382      1.0  0.6948072173907545  0.8527708130924216  0.5601674612275382  1.0000
  H   H383      1.0  0.7086680866517588  0.8593768757099649  0.7030058289974231  1.0000
  H   H384      1.0  0.7321968968194086  0.8626485469235201  0.6743606216637535  1.0000
  H   H385      1.0  0.6864621649180281  0.8672792790551684  0.7322008213143668  1.0000
  H   H386      1.0  0.6751478746458718  0.8891964621132692  0.7466573469643067  1.0000
  H   H387      1.0  0.6599477636978106  0.8903562583583156  0.6065256129582332  1.0000
  H   H388      1.0  0.6717664468841257  0.8680528244917108  0.5912761281978016  1.0000
  H   H389      1.0  0.6555144650089192  0.8508775235130988  0.6345575985797892  1.0000
  H   H390      1.0  0.6407849153457775  0.8326222665697537  0.6013731408713945  1.0000
  H   H391      1.0  0.6766174664245846  0.8074256795368849  0.5690168849006244  1.0000
  H   H392      1.0  0.6919794739954126  0.8246405028695323  0.6024233711599566  1.0000
  C   C617      1.0  0.6688760851199899  0.671015583340708  0.4814777233650662  1.0000
  C   C618      1.0  0.6616154246091153  0.6810316113116045  0.45591977016824403  1.0000
  C   C619      1.0  0.6686471493998234  0.688647213289516  0.4221855274765752  1.0000
  C   C620      1.0  0.6832096609391056  0.6877571369891002  0.4170577252287295  1.0000
  C   C621      1.0  0.69025857425361  0.6779167541723691  0.4440958687651361  1.0000
  C   C622      1.0  0.6828231633777774  0.6694192411513319  0.47524330262524567  1.0000
  H   H393      1.0  0.6503129544122744  0.682086061821311  0.45687484536354717  1.0000
  H   H394      1.0  0.6627935314184367  0.6962303352124034  0.4015157266630944  1.0000
  H   H395      1.0  0.7017358822617886  0.676717273982301  0.4422703006796488  1.0000
  H   H396      1.0  0.6884384610913306  0.6613352122274606  0.49411220519223226  1.0000
  C   C623      1.0  0.7122626400903285  0.7033137305866778  0.4312675524887388  1.0000
  C   C624      1.0  0.7072843940062501  0.7004892605598284  0.38657285275871955  1.0000
  C   C625      1.0  0.7167036635449763  0.7020254150838383  0.3494697673394111  1.0000
  C   C626      1.0  0.7309686392969083  0.7043650974112446  0.3579311696877634  1.0000
  C   C627      1.0  0.7359477377646747  0.7049326202621871  0.40348578951982683  1.0000
  C   C628      1.0  0.7264093220477017  0.7047094630747268  0.4399055203990272  1.0000
  C   C629      1.0  0.6913694327558522  0.6957483316960994  0.3771172558989465  1.0000
  C   C630      1.0  0.6851816176304958  0.7112646487355271  0.3641268235377377  1.0000
  C   C631      1.0  0.6861340044739634  0.7167644569915121  0.32015495009021544  1.0000
  C   C632      1.0  0.6826601639534644  0.7302353030879695  0.31002516177338885  1.0000
  C   C633      1.0  0.6778605830312292  0.7391358949991526  0.3445823198086123  1.0000
  C   C634      1.0  0.6769025592505962  0.7340217153263804  0.3906645217688562  1.0000
  C   C635      1.0  0.6807640279193571  0.720314744996673  0.40041615669654607  1.0000
  C   C636      1.0  0.7003796354126065  0.6729209298845613  0.3374428684040173  1.0000
  C   C637      1.0  0.700640248990349  0.6630135697322008  0.3034185788910443  1.0000
  C   C638      1.0  0.6920730489772159  0.6641241537025189  0.26394613164958697  1.0000
  C   C639      1.0  0.6818310359707281  0.6746005321817128  0.26394084525551703  1.0000
  C   C640      1.0  0.6807088184655491  0.6838060397945271  0.30076939060945973  1.0000
  C   C641      1.0  0.690528466268072  0.683615287228066  0.336845858300385  1.0000
  C   C642      1.0  0.6951737907298065  0.654904444212173  0.21889230954908284  1.0000
  C   C643      1.0  0.7394912291481865  0.6682952896227464  0.20464547753058396  1.0000
  C   C644      1.0  0.7361634789603653  0.6541509434849908  0.20472512586790445  1.0000
  C   C645      1.0  0.7220692030577458  0.6500993438553619  0.20885379963653067  1.0000
  C   C646      1.0  0.7109705226416292  0.6595167526389698  0.2068943095679381  1.0000
  C   C647      1.0  0.7146655454570882  0.6735643067263187  0.20266977585351026  1.0000
  C   C648      1.0  0.7286755632502007  0.6779102850111797  0.20390256295062117  1.0000
  C   C649      1.0  0.6847228081071076  0.6576408063278376  0.17614511739443095  1.0000
  C   C650      1.0  0.6710448290917977  0.6525242814895881  0.17936276925167013  1.0000
  C   C651      1.0  0.6605969994664982  0.6562262550287989  0.14826537992208932  1.0000
  C   C652      1.0  0.6636156409699066  0.6646629431629061  0.11067524139580338  1.0000
  C   C653      1.0  0.677136988096923  0.6699923367298349  0.10728067155035673  1.0000
  C   C654      1.0  0.6876792792326563  0.6660678046439534  0.13778387018647584  1.0000
  C   C655      1.0  0.6963057761922411  0.6287543064804235  0.19593173797195973  1.0000
  C   C656      1.0  0.694501056076411  0.6144917676973642  0.20351559890470128  1.0000
  C   C657      1.0  0.6913939474332613  0.609505994385541  0.24772077854384375  1.0000
  C   C658      1.0  0.6888298986041711  0.6190674474878226  0.28245168273083265  1.0000
  C   C659      1.0  0.689547921101569  0.6331777016340457  0.27426693500547417  1.0000
  C   C660      1.0  0.6941499641187814  0.6383821770284829  0.23170300451191364  1.0000
  H   H397      1.0  0.705428722736595  0.7028958790815226  0.4624467047132681  1.0000
  H   H398      1.0  0.7133239804438415  0.7002735060722303  0.31306941990513387  1.0000
  H   H399      1.0  0.7379735101886792  0.7040273664808375  0.32882710334882276  1.0000
  H   H400      1.0  0.7301538217455228  0.705513100416598  0.47609264993915  1.0000
  H   H401      1.0  0.6902607060500952  0.7103462783112853  0.2910706196224693  1.0000
  H   H402      1.0  0.6837381998936829  0.7334750521284377  0.2734972360288903  1.0000
  H   H403      1.0  0.674036173825408  0.740401161762146  0.4199863875434785  1.0000
  H   H404      1.0  0.6807410981132966  0.7167168762213603  0.4355671529989599  1.0000
  H   H405      1.0  0.7077830950864893  0.6720955408766596  0.36687574845410853  1.0000
  H   H406      1.0  0.708389095970064  0.6549999147179101  0.3063969333100507  1.0000
  H   H407      1.0  0.674613182611788  0.6754122805102281  0.23449245844948738  1.0000
  H   H408      1.0  0.672190970324428  0.691377309466325  0.29856003031449446  1.0000
  H   H409      1.0  0.744486626408342  0.6464315457010898  0.20945151459270567  1.0000
  H   H410      1.0  0.7207519899378056  0.6390761987134908  0.21767467678163907  1.0000
  H   H411      1.0  0.7066388621688617  0.6813288976986885  0.19822321358814476  1.0000
  H   H412      1.0  0.730988951006155  0.6889467719532602  0.20065143059760568  1.0000
  H   H413      1.0  0.6680531689946624  0.6461975138964478  0.20905679716881653  1.0000
  H   H414      1.0  0.6502281381211842  0.6518133219468382  0.15404869503460797  1.0000
  H   H415      1.0  0.680205813364693  0.6769249839763842  0.0796437557789612  1.0000
  H   H416      1.0  0.6982985426791695  0.670159366358155  0.13073781174378324  1.0000
  H   H417      1.0  0.6988648907522431  0.6325692007621334  0.16048399874908637  1.0000
  H   H418      1.0  0.6963772846358485  0.6073223995485515  0.173877254338425  1.0000
  H   H419      1.0  0.6854590231439571  0.6153464211972166  0.31625464854541074  1.0000
  H   H420      1.0  0.6863556321293433  0.6399532528605104  0.3024212125431815  1.0000
  C   C661      1.0  0.6622819969002515  0.6690621922725518  0.9920975751063768  1.0000
  C   C662      1.0  0.6569629449051669  0.6787671680206144  0.9615140232803944  1.0000
  C   C663      1.0  0.6657298549741504  0.6861310154766017  0.9309586655561186  1.0000
  C   C664      1.0  0.680390574474751  0.6847947965116431  0.934430064328715  1.0000
  C   C665      1.0  0.685275457099074  0.6743449317521124  0.9644814524849896  1.0000
  C   C666      1.0  0.6764445010464332  0.666534390046255  0.9922174000386288  1.0000
  H   H421      1.0  0.6459819496528245  0.680860746330194  0.9582153133807494  1.0000
  H   H422      1.0  0.6612281566765358  0.6934825594290142  0.907754919851778  1.0000
  H   H423      1.0  0.6963539176060788  0.6719711747490751  0.9673995420115986  1.0000
  H   H424      1.0  0.681147132258837  0.658706668425399  0.014784246839649382  1.0000
  C   C667      1.0  0.7086243190477658  0.6998898794349155  0.9648444515444591  1.0000
  C   C668      1.0  0.7063985054243089  0.6950417121483266  0.9189902693817655  1.0000
  C   C669      1.0  0.7179693467200883  0.6946524302718928  0.8894076081663592  1.0000
  C   C670      1.0  0.7313489142335146  0.6975967396731841  0.9057742842069056  1.0000
  C   C671      1.0  0.7332338036815466  0.7018825522264542  0.9511773607422974  1.0000
  C   C672      1.0  0.7219831144525147  0.70254481776563  0.9815952722207547  1.0000
  C   C673      1.0  0.6907874094517252  0.6925358551734846  0.8994270870602596  1.0000
  C   C674      1.0  0.6868153546380189  0.7084269958777429  0.8875714672927321  1.0000
  C   C675      1.0  0.6923371773001714  0.7151483910307108  0.8489103053278755  1.0000
  C   C676      1.0  0.6905098714665614  0.7291979762758735  0.8412415096637436  1.0000
  C   C677      1.0  0.6841843572025412  0.7372736633979607  0.8743413850670191  1.0000
  C   C678      1.0  0.6785946773793268  0.730864970726102  0.9134078372439047  1.0000
  C   C679      1.0  0.6795724909332264  0.7165768190809368  0.9196352094582987  1.0000
  C   C680      1.0  0.6971932613229238  0.669104652325685  0.8576363798059963  1.0000
  C   C681      1.0  0.6984958697025785  0.6607315143945102  0.8194051778921617  1.0000
  C   C682      1.0  0.693592398189765  0.6649547216600007  0.7751439624758779  1.0000
  C   C683      1.0  0.686388170295146  0.6776102217877491  0.7736391022973005  1.0000
  C   C684      1.0  0.6841939659054569  0.6854508534991419  0.8128993889234174  1.0000
  C   C685      1.0  0.6905647055820909  0.6820597921924574  0.8550671922880035  1.0000
  C   C686      1.0  0.6968843405217388  0.6553622827597408  0.7289444025672812  1.0000
  C   C687      1.0  0.7411956768691438  0.6683541909935476  0.7233126307514345  1.0000
  C   C688      1.0  0.7373681647360365  0.6567288450197564  0.7479119844902402  1.0000
  C   C689      1.0  0.7233705497624959  0.652329755158568  0.7478591205495407  1.0000
  C   C690      1.0  0.7129405203588155  0.6597792287975976  0.7225972054206353  1.0000
  C   C691      1.0  0.7173012958574156  0.6716900835565492  0.6986427917583626  1.0000
  C   C692      1.0  0.7311095268942984  0.6753810129122463  0.6982163559700538  1.0000
  C   C693      1.0  0.6866923036018949  0.6577832937405006  0.6840911110151638  1.0000
  C   C694      1.0  0.6723735388301217  0.6596682194942118  0.6907484432805797  1.0000
  C   C695      1.0  0.6634301779911951  0.6632887393800115  0.65428642124882  1.0000
  C   C696      1.0  0.6689849256006912  0.6654150994219846  0.6097080221883394  1.0000
  C   C697      1.0  0.683144355655388  0.663491285730983  0.602807515795706  1.0000
  C   C698      1.0  0.6917910760463079  0.6597458147310667  0.6388607233527236  1.0000
  C   C699      1.0  0.70091070935052  0.6286571418819793  0.7120385143316007  1.0000
  C   C700      1.0  0.6995053869160685  0.6148140135929868  0.7224033709714041  1.0000
  C   C701      1.0  0.6900000605452482  0.6111225259141353  0.7567296897989066  1.0000
  C   C702      1.0  0.681628810076479  0.6210813623467887  0.7780479549516337  1.0000
  C   C703      1.0  0.6838357654309236  0.6349402834412462  0.7678663599729219  1.0000
  C   C704      1.0  0.6940118681762208  0.6391939341804358  0.7366378680704064  1.0000
  H   H425      1.0  0.6998533731057445  0.701142640532728  0.9886825645371929  1.0000
  H   H426      1.0  0.7168465332128334  0.6918355287065255  0.8518883073206106  1.0000
  H   H427      1.0  0.7397158678210854  0.6971627593991383  0.8806780094255252  1.0000
  H   H428      1.0  0.7236642964910022  0.7056983046504965  0.018070269393526524  1.0000
  H   H429      1.0  0.6987910278118683  0.7094929356629698  0.8236060990464105  1.0000
  H   H430      1.0  0.6948991673505952  0.7341300246152452  0.8092764468541492  1.0000
  H   H431      1.0  0.673592247565774  0.7370801009872749  0.9406045726024095  1.0000
  H   H432      1.0  0.6760872985068034  0.7126943169178185  0.9536055777517582  1.0000
  H   H433      1.0  0.7022375988079455  0.6654554217661516  0.88965430655629  1.0000
  H   H434      1.0  0.7046681890722767  0.6511829468142899  0.8244589706230282  1.0000
  H   H435      1.0  0.6826065459105589  0.6812980298120688  0.7409057502162077  1.0000
  H   H436      1.0  0.6780804871557117  0.6953645626880145  0.8082332650910136  1.0000
  H   H437      1.0  0.7449275523211819  0.6510074953262642  0.7685218728375949  1.0000
  H   H438      1.0  0.7209821819700811  0.6429278406590403  0.768511300049455  1.0000
  H   H439      1.0  0.7094142476348512  0.6781614401342575  0.6814126713530588  1.0000
  H   H440      1.0  0.7335287544254155  0.6849500820868344  0.6787377559536673  1.0000
  H   H441      1.0  0.668083762715255  0.6590262089510269  0.7261073710830781  1.0000
  H   H442      1.0  0.6528116880457391  0.6652628944051662  0.661169306327887  1.0000
  H   H443      1.0  0.6879085404648464  0.6667993280893986  0.5698732807399554  1.0000
  H   H444      1.0  0.7025830244860185  0.6574881585401428  0.631054481442773  1.0000
  H   H445      1.0  0.7088419307446825  0.6317022857421168  0.686737832312849  1.0000
  H   H446      1.0  0.7060554895872785  0.6073481204748865  0.7034463618365852  1.0000
  H   H447      1.0  0.673838741085179  0.6179902930377834  0.804046440987618  1.0000
  H   H448      1.0  0.6768714864464326  0.6428393274301685  0.7834506496911166  1.0000
  C   C705      1.0  0.9296720951726819  0.6070990674173268  0.339297687870025  1.0000
  C   C706      1.0  0.9401978383007854  0.6112286268914332  0.31031520859469314  1.0000
  C   C707      1.0  0.9459229622803011  0.6018088296075688  0.27899191402519  1.0000
  C   C708      1.0  0.9415809988391407  0.5878035947587348  0.2778613305467647  1.0000
  C   C709      1.0  0.9308081130519167  0.5840162484121376  0.3076861086105744  1.0000
  C   C710      1.0  0.9247048972065913  0.5936044263302677  0.3374911508031895  1.0000
  H   H449      1.0  0.9446168473613558  0.6216968422573828  0.3110140698907397  1.0000
  H   H450      1.0  0.9535754788820352  0.6056480889412251  0.2540020719777511  1.0000
  H   H451      1.0  0.9267031141787927  0.5734876863744944  0.30849809873971773  1.0000
  H   H452      1.0  0.9160947106111913  0.590531972029256  0.35943250560362744  1.0000
  C   C711      1.0  0.9526083904716888  0.5578756898832132  0.3013477221207116  1.0000
  C   C712      1.0  0.949158801072094  0.5613222030268112  0.2555101039927704  1.0000
  C   C713      1.0  0.9475569282549278  0.5503070822667775  0.2243362381623111  1.0000
  C   C714      1.0  0.9494450631359018  0.5367804141634327  0.23699292284457085  1.0000
  C   C715      1.0  0.9524624945615371  0.5334492281772228  0.2826715967241423  1.0000
  C   C716      1.0  0.9539229388955328  0.5440452281167343  0.315197369731422  1.0000
  C   C717      1.0  0.947760957780964  0.5772580012650214  0.2390419291860811  1.0000
  C   C718      1.0  0.9640198515837829  0.5800696411638291  0.22469183627008266  1.0000
  C   C719      1.0  0.9691657841364063  0.5779014402039891  0.1789465538252299  1.0000
  C   C720      1.0  0.9831558581972438  0.5800423786021236  0.16966399826467968  1.0000
  C   C721      1.0  0.9922964643959522  0.5843037424356732  0.20435084916775242  1.0000
  C   C722      1.0  0.9873792535809641  0.5863784039364089  0.24951674282253936  1.0000
  C   C723      1.0  0.9734906891630843  0.5839335154974455  0.2595094373198187  1.0000
  C   C724      1.0  0.9237922354720901  0.5717838549104269  0.20032014990255584  1.0000
  C   C725      1.0  0.9138912333316701  0.5728507908637039  0.16533867063665156  1.0000
  C   C726      1.0  0.915830815466743  0.5816985537029995  0.12746200955177464  1.0000
  C   C727      1.0  0.9275722798981981  0.5905800877696632  0.12908528495751878  1.0000
  C   C728      1.0  0.9375660696150244  0.5895417693730647  0.16498483466023664  1.0000
  C   C729      1.0  0.9361849072383065  0.5794323386138505  0.20010094076178883  1.0000
  C   C730      1.0  0.9040339207741478  0.5809763476022003  0.08685474971663605  1.0000
  C   C731      1.0  0.8974449380601885  0.5359400847869507  0.058370601188964186  1.0000
  C   C732      1.0  0.8860471234655335  0.5439554550877364  0.07040384379724188  1.0000
  C   C733      1.0  0.8877375387741199  0.5578409922739371  0.07763034449085522  1.0000
  C   C734      1.0  0.9009274997689078  0.5645073305106061  0.07624354711317329  1.0000
  C   C735      1.0  0.9124935249478374  0.5559453391305216  0.066998348737384  1.0000
  C   C736      1.0  0.910602691804073  0.5419510306095522  0.0575025752826794  1.0000
  C   C737      1.0  0.9098923989701052  0.5892036136288856  0.04065201797159746  1.0000
  C   C738      1.0  0.9097558506762985  0.6035511686972811  0.03971703107376005  1.0000
  C   C739      1.0  0.9149655023944945  0.6110227653917479  0.0025011986360263805  1.0000
  C   C740      1.0  0.9218027071137554  0.6041795078267337  0.9660885162822527  1.0000
  C   C741      1.0  0.9221968568071897  0.5898555245814684  0.9653167027480407  1.0000
  C   C742      1.0  0.9158549229036688  0.5823593610845341  0.0018703556103463193  1.0000
  C   C743      1.0  0.8789555427215867  0.590978845678436  0.06810038568783165  1.0000
  C   C744      1.0  0.8679844343394476  0.5995629197056832  0.07751792051030108  1.0000
  C   C745      1.0  0.8667714486850002  0.6059236903345976  0.1204247617658653  1.0000
  C   C746      1.0  0.8757722668279678  0.6020248850021399  0.15587461554636664  1.0000
  C   C747      1.0  0.8867679331874994  0.5931663038928925  0.14739523945817654  1.0000
  C   C748      1.0  0.8893243281890895  0.5883204247923911  0.1021289043160607  1.0000
  H   H453      1.0  0.9543681136529923  0.5662265609229609  0.32588363913067797  1.0000
  H   H454      1.0  0.9449727818901688  0.5522191216798984  0.18840602737398757  1.0000
  H   H455      1.0  0.9481765422587868  0.5286216949911778  0.2098476417216801  1.0000
  H   H456      1.0  0.9565715392309859  0.5408746584316843  0.35157762886823346  1.0000
  H   H457      1.0  0.9621197899220942  0.5743873763378727  0.15223581429488856  1.0000
  H   H458      1.0  0.987154520239592  0.5785145200279207  0.1352256078828943  1.0000
  H   H459      1.0  0.9948136537891392  0.5887349286168085  0.27759454385936816  1.0000
  H   H460      1.0  0.970162249882618  0.5843708537827372  0.2949737405774445  1.0000
  H   H461      1.0  0.9211998393102467  0.564243676635447  0.22727829267537056  1.0000
  H   H462      1.0  0.9046321143162225  0.5661777698759507  0.1687617870100759  1.0000
  H   H463      1.0  0.9297244228622431  0.598389856237317  0.10220044684914062  1.0000
  H   H464      1.0  0.9466142360242826  0.5959475265678772  0.16543276845109658  1.0000
  H   H465      1.0  0.8755103454152189  0.5393741256442922  0.0744183314539573  1.0000
  H   H466      1.0  0.8782019691558376  0.563387833125822  0.08819537925277383  1.0000
  H   H467      1.0  0.9232246142852963  0.5600981220159766  0.07085706398217173  1.0000
  H   H468      1.0  0.9197526347772471  0.535500774729602  0.05244208645265774  1.0000
  H   H469      1.0  0.9047594049879066  0.6100187590063141  0.06591322824796018  1.0000
  H   H470      1.0  0.9143861904506372  0.6224930054947442  0.004213990314688054  1.0000
  H   H471      1.0  0.9279826146118546  0.5847823905624263  0.9373411053298976  1.0000
  H   H472      1.0  0.9169254937365973  0.571179351469267  0.9991883916855282  1.0000
  H   H473      1.0  0.8803292692127471  0.5860292551021771  0.03294882550338371  1.0000
  H   H474      1.0  0.8603867904220969  0.6022204610357861  0.050489292483220455  1.0000
  H   H475      1.0  0.87531803838395  0.6064406810328319  0.19131601109635601  1.0000
  H   H476      1.0  0.893584124092604  0.5906700314669846  0.17685596118370273  1.0000
  C   C749      1.0  0.9301851700657241  0.6035001891073278  0.8409172774941203  1.0000
  C   C750      1.0  0.9396271183297757  0.6115539002951293  0.8158809151788659  1.0000
  C   C751      1.0  0.9482580611873354  0.6055707221294004  0.7826576905806248  1.0000
  C   C752      1.0  0.9472989248383912  0.5912246410157244  0.7719509804576318  1.0000
  C   C753      1.0  0.9372770768361803  0.583715389396614  0.7972410896882436  1.0000
  C   C754      1.0  0.928873502797538  0.5895150734200548  0.8306581487357158  1.0000
  H   H477      1.0  0.9405617848771551  0.6228803183644884  0.8204518839180107  1.0000
  H   H478      1.0  0.9559371287343241  0.611991318463364  0.7641517870731079  1.0000
  H   H479      1.0  0.9360427723485709  0.5723321859424512  0.79222253958451  1.0000
  H   H480      1.0  0.9214044512987839  0.5830920037579446  0.8480045698105585  1.0000
  C   C755      1.0  0.9633458594962899  0.5628709069121813  0.7817942462158674  1.0000
  C   C756      1.0  0.96211562276613  0.5686516618491897  0.7373356720876391  1.0000
  C   C757      1.0  0.9648005780097263  0.5600717291841564  0.6986040248685165  1.0000
  C   C758      1.0  0.9675523384333405  0.546153784424564  0.7046657567353856  1.0000
  C   C759      1.0  0.9670440045120796  0.5402366923217149  0.74918424332974  1.0000
  C   C760      1.0  0.9651225316525133  0.5487399916071913  0.7877185318369179  1.0000
  C   C761      1.0  0.9561234981360673  0.584208558444476  0.7298113711947521  1.0000
  C   C762      1.0  0.9708205392857353  0.5917184051131967  0.7193125925718434  1.0000
  C   C763      1.0  0.976948753784362  0.5932752656146287  0.6748927853334613  1.0000
  C   C764      1.0  0.9905717778823085  0.5982294225426391  0.6690883246446628  1.0000
  C   C765      1.0  0.998642264064167  0.6011065700797286  0.7080243791011566  1.0000
  C   C766      1.0  0.9927388040647875  0.6004452733106569  0.7518450616782785  1.0000
  C   C767      1.0  0.9794387235427864  0.5955750646444371  0.7577622987739023  1.0000
  C   C768      1.0  0.9346218328500733  0.5732073052673433  0.6863995030923726  1.0000
  C   C769      1.0  0.9251644757916434  0.573133479726806  0.6495321908485836  1.0000
  C   C770      1.0  0.9244249433909015  0.5835237113800726  0.616717780725085  1.0000
  C   C771      1.0  0.9332974273927405  0.5948763325517274  0.6244676344316229  1.0000
  C   C772      1.0  0.9428638165867016  0.5950863126272209  0.6607111521751584  1.0000
  C   C773      1.0  0.9441273331781493  0.5840386224091646  0.6909035108399648  1.0000
  C   C774      1.0  0.9136340682520964  0.581245003218962  0.5730592142327748  1.0000
  C   C775      1.0  0.9121310103526913  0.5371640523338267  0.5276631862228097  1.0000
  C   C776      1.0  0.9003262995694297  0.5453160110660963  0.5209811841184006  1.0000
  C   C777      1.0  0.900779705027238  0.5594755609259294  0.5322200579111013  1.0000
  C   C778      1.0  0.912720808825022  0.5654014591936788  0.5537533030893396  1.0000
  C   C779      1.0  0.9247367748150459  0.5570763832457597  0.553806167030039  1.0000
  C   C780      1.0  0.9243473223369372  0.543158858000513  0.5417320429742871  1.0000
  C   C781      1.0  0.9188670887325046  0.5914371654863944  0.531060575478427  1.0000
  C   C782      1.0  0.9166541493899921  0.6060855819802874  0.5328332796232148  1.0000
  C   C783      1.0  0.9213088615291115  0.6147067163343128  0.49798889417685777  1.0000
  C   C784      1.0  0.9276010110763024  0.6092001126240512  0.4594475571442532  1.0000
  C   C785      1.0  0.9306215982592452  0.5953015819319649  0.4574422516603878  1.0000
  C   C786      1.0  0.9256868618679528  0.5864062654894656  0.49098970842825196  1.0000
  C   C787      1.0  0.8883456169710887  0.5904694603105871  0.5582855049386383  1.0000
  C   C788      1.0  0.875117810100934  0.5953947884809259  0.5703420076808237  1.0000
  C   C789      1.0  0.8714191663818968  0.5963360050575491  0.6167812174539244  1.0000
  C   C790      1.0  0.880824698200481  0.5913225639684317  0.6500467332047248  1.0000
  C   C791      1.0  0.8938653430039263  0.5861768008414252  0.6374756881063982  1.0000
  C   C792      1.0  0.898459258567746  0.586030658232728  0.5910681966977172  1.0000
  H   H481      1.0  0.9616622607569636  0.569066381030478  0.8130720777963689  1.0000
  H   H482      1.0  0.9645136037605112  0.5641792613063352  0.6631428934473327  1.0000
  H   H483      1.0  0.9685702428012378  0.5399471205827442  0.6744628252824392  1.0000
  H   H484      1.0  0.9646099931973785  0.5446240295023882  0.8230598383258496  1.0000
  H   H485      1.0  0.9710482543629582  0.5900558492876659  0.6446581355160954  1.0000
  H   H486      1.0  0.9946739421986418  0.5989322999131055  0.6338245519354236  1.0000
  H   H487      1.0  0.9991106733646804  0.6019314364049041  0.7838488913777188  1.0000
  H   H488      1.0  0.9753259800082726  0.5944106293532608  0.7928921495000364  1.0000
  H   H489      1.0  0.9348070092936407  0.5643506904385762  0.70989928686463  1.0000
  H   H490      1.0  0.9181435646774865  0.5641067215673368  0.6496766856198288  1.0000
  H   H491      1.0  0.933374724608298  0.6042510773256101  0.6041291143131919  1.0000
  H   H492      1.0  0.9493603613486294  0.6038504883786829  0.6659376337789763  1.0000
  H   H493      1.0  0.8907105694277458  0.5405258090799929  0.508364323604801  1.0000
  H   H494      1.0  0.8911880597455093  0.5655342060739537  0.5264155972223029  1.0000
  H   H495      1.0  0.9348657257073192  0.5615330371347937  0.5631877543728329  1.0000
  H   H496      1.0  0.9339854924052611  0.5364448816691599  0.5417672856014201  1.0000
  H   H497      1.0  0.9118014931210011  0.6107087074461449  0.5639489951189047  1.0000
  H   H498      1.0  0.9198997937247667  0.6260248790618309  0.5029792501788849  1.0000
  H   H499      1.0  0.9361577026080211  0.5907208175461894  0.427577649427918  1.0000
  H   H500      1.0  0.9280972500435924  0.5752159140639493  0.48552357695993  1.0000
  H   H501      1.0  0.8905541658025671  0.5904454476160805  0.5197688377450268  1.0000
  H   H502      1.0  0.8674156577791894  0.5975317794760269  0.5423946043643867  1.0000
  H   H503      1.0  0.8780589802589942  0.5915977183194042  0.6867307837874225  1.0000
  H   H504      1.0  0.8999047596161915  0.5821078928043008  0.6658882941009902  1.0000
  C   C793      1.0  0.030704004118586727  0.571856163411741  0.18068718717932675  1.0000
  C   C794      1.0  0.0390207311778273  0.5788443882822253  0.1497688303955814  1.0000
  C   C795      1.0  0.05300525207475132  0.579760007017712  0.15603567435236423  1.0000
  C   C796      1.0  0.05997577255701313  0.5718940394751459  0.19076023486646926  1.0000
  C   C797      1.0  0.05127023832405711  0.5652018946548161  0.2225776310683764  1.0000
  C   C798      1.0  0.036713594802593  0.5656874692437005  0.21913971279155622  1.0000
  H   H505      1.0  0.03399742802166235  0.5846903026466169  0.12189755115375168  1.0000
  H   H506      1.0  0.05867041793353992  0.5867554487852256  0.13120724353719426  1.0000
  H   H507      1.0  0.055102384228585245  0.5602232557477238  0.25318691001216576  1.0000
  H   H508      1.0  0.030251685915197137  0.5604934714111214  0.2454758231954742  1.0000
  C   C799      1.0  0.08012275129480023  0.5500592087559584  0.2556905462436912  1.0000
  C   C800      1.0  0.08100572022547224  0.5560507159085903  0.21099725621875726  1.0000
  C   C801      1.0  0.08355171997179417  0.5470233147034882  0.17353258144506464  1.0000
  C   C802      1.0  0.08690712925155249  0.5332307335755229  0.18127679633126118  1.0000
  C   C803      1.0  0.08636791256793142  0.5275902501148265  0.22486875425829012  1.0000
  C   C804      1.0  0.08219732292328534  0.5360070993884342  0.26204302978440713  1.0000
  C   C805      1.0  0.07692253897139294  0.5721488860273941  0.20036667017037135  1.0000
  C   C806      1.0  0.07885895953917728  0.5835729143395455  0.2407554257172856  1.0000
  C   C807      1.0  0.08775451125320073  0.5814361104670128  0.27899614314044596  1.0000
  C   C808      1.0  0.08925685041833985  0.591514936737682  0.31455172480234617  1.0000
  C   C809      1.0  0.08285343869850045  0.6043722858561498  0.3112311644738787  1.0000
  C   C810      1.0  0.0744625881517205  0.6065876863254969  0.27277229518876533  1.0000
  C   C811      1.0  0.07301602618113646  0.5968130600716801  0.23727838812434782  1.0000
  C   C812      1.0  0.08389756400544439  0.5760203480734281  0.11287825801788469  1.0000
  C   C813      1.0  0.09357589299318056  0.5788518476437405  0.07888286745916061  1.0000
  C   C814      1.0  0.10746838658217531  0.5817103749408715  0.08947468661770026  1.0000
  C   C815      1.0  0.11139680152895291  0.5809694416709942  0.13677980773945783  1.0000
  C   C816      1.0  0.10150687459000524  0.579059915789511  0.1707551100007161  1.0000
  C   C817      1.0  0.08739839213965432  0.5767782198085113  0.15997227580311582  1.0000
  C   C818      1.0  0.11916887822427968  0.584861378706437  0.05097705044274062  1.0000
  C   C819      1.0  0.12762136528464105  0.5411637755180606  0.01684160568379016  1.0000
  C   C820      1.0  0.11780454480335027  0.5485151269959389  0.9905081326226802  1.0000
  C   C821      1.0  0.11588915922192833  0.5626424029546957  0.9992553526770808  1.0000
  C   C822      1.0  0.1229764428956813  0.5695405101794826  0.0359129419010284  1.0000
  C   C823      1.0  0.13241936117179562  0.5617504485100795  0.06211160605912784  1.0000
  C   C824      1.0  0.1350624407420542  0.5479456411235133  0.051537760640426  1.0000
  C   C825      1.0  0.13183161045361041  0.5951254386231546  0.06903995412719635  1.0000
  C   C826      1.0  0.12883844100138372  0.6070379613694904  0.09557483294814423  1.0000
  C   C827      1.0  0.13944979523634196  0.6162283260837811  0.10831856691942239  1.0000
  C   C828      1.0  0.15274960436058319  0.6147185956333913  0.09098941473187486  1.0000
  C   C829      1.0  0.15576627835185414  0.6032657650944389  0.06206649549639765  1.0000
  C   C830      1.0  0.1454628893419255  0.5937289709810432  0.051655118588778755  1.0000
  C   C831      1.0  0.1204671563241757  0.5934621689496814  0.9637378330524842  1.0000
  C   C832      1.0  0.11714994951024373  0.6029719528003368  0.9296159214623528  1.0000
  C   C833      1.0  0.106973704564551  0.6131070560263656  0.9381411129658156  1.0000
  C   C834      1.0  0.10086662494506617  0.613996940496287  0.981538884017342  1.0000
  C   C835      1.0  0.10403593593960765  0.6045935495352761  0.016360473338170995  1.0000
  C   C836      1.0  0.11413954279121012  0.5941197028710936  0.008693328223287278  1.0000
  H   H509      1.0  0.07653865169348051  0.5559489701924051  0.28547479528629793  1.0000
  H   H510      1.0  0.08247978331317438  0.5499693558900964  0.13695284903868066  1.0000
  H   H511      1.0  0.0893674955976163  0.527092910537119  0.1498809019498642  1.0000
  H   H512      1.0  0.08102652515714848  0.5312112912816938  0.2968874152307642  1.0000
  H   H513      1.0  0.0943679851124185  0.572350187853091  0.28106312322179405  1.0000
  H   H514      1.0  0.09597309637220279  0.5895203238908427  0.34489844617399495  1.0000
  H   H515      1.0  0.07040626327466881  0.6167366811294265  0.2658950489300396  1.0000
  H   H516      1.0  0.06731428969454857  0.6001446406701045  0.20577218432002467  1.0000
  H   H517      1.0  0.07378038142273541  0.5724728682584524  0.09958086237434773  1.0000
  H   H518      1.0  0.09016023590272454  0.5785547464773257  0.042445867692665104  1.0000
  H   H519      1.0  0.12259155515270691  0.5816088295819706  0.14513971132166714  1.0000
  H   H520      1.0  0.10513974573777073  0.578022646403752  0.20665501212970533  1.0000
  H   H521      1.0  0.1111584459451021  0.5429670414745199  0.9663845543501695  1.0000
  H   H522      1.0  0.10815520338695331  0.5677705964752997  0.9802490038642757  1.0000
  H   H523      1.0  0.13834418549191857  0.5667042977758243  0.09098095650136295  1.0000
  H   H524      1.0  0.14229866491546192  0.5420776197344706  0.07268439419901569  1.0000
  H   H525      1.0  0.11806327479601754  0.609345553657596  0.10535078528855586  1.0000
  H   H526      1.0  0.1369482498552491  0.625690694001308  0.12858589693104475  1.0000
  H   H527      1.0  0.1661042803242691  0.6022305175346704  0.04591550433390497  1.0000
  H   H528      1.0  0.1481227370603609  0.5854378935020733  0.027139113663142464  1.0000
  H   H529      1.0  0.12893533181733394  0.5862123316974851  0.9544443522775228  1.0000
  H   H530      1.0  0.12255532724050645  0.6026927113891194  0.8965054732709372  1.0000
  H   H531      1.0  0.09290923720690047  0.6221491507038154  0.9885874094439339  1.0000
  H   H532      1.0  0.09957617538803168  0.606691853086319  0.05032083272552491  1.0000
  C   C837      1.0  0.03863444107565275  0.5991324506862697  0.6688662960937253  1.0000
  C   C838      1.0  0.048267646165089426  0.6089972388539093  0.681557166124304  1.0000
  C   C839      1.0  0.06170468240688392  0.6050438414134042  0.6941845994260433  1.0000
  C   C840      1.0  0.06565504174890699  0.5913118981886414  0.6948401122907164  1.0000
  C   C841      1.0  0.05587004488253825  0.5816491315979072  0.680866410632498  1.0000
  C   C842      1.0  0.04229473509046614  0.5854202835453493  0.6690495577548167  1.0000
  H   H533      1.0  0.046247615828390536  0.6198814607425813  0.6842426543118354  1.0000
  H   H534      1.0  0.06938320076664985  0.6133134721200834  0.7010604359796837  1.0000
  H   H535      1.0  0.05834724295554041  0.5707218044977467  0.6778707873261964  1.0000
  H   H536      1.0  0.0344751482019323  0.5769281029669665  0.6616063149043356  1.0000
  C   C843      1.0  0.0711015222617033  0.5673705945276512  0.765357084921055  1.0000
  C   C844      1.0  0.08175942742795754  0.5715791678206951  0.7342061267982322  1.0000
  C   C845      1.0  0.09303933396858201  0.5627371203134381  0.7281972588720627  1.0000
  C   C846      1.0  0.09322669497774358  0.549831462810907  0.7475278398544908  1.0000
  C   C847      1.0  0.08240172059716706  0.5452938006809142  0.7762576294932795  1.0000
  C   C848      1.0  0.07154622000536782  0.5541936174968655  0.7857519932428988  1.0000
  C   C849      1.0  0.08121766200233474  0.5867285532899051  0.7088243867370747  1.0000
  C   C850      1.0  0.08835061743848154  0.5960804431930702  0.7506996762964572  1.0000
  C   C851      1.0  0.10308297543952485  0.5971599702902516  0.7545939865946493  1.0000
  C   C852      1.0  0.10894042817306997  0.6052948179611888  0.7889978392018443  1.0000
  C   C853      1.0  0.10068971378751752  0.6127981007491233  0.819764652688918  1.0000
  C   C854      1.0  0.08638309975674964  0.6107114708291168  0.8186086945189569  1.0000
  C   C855      1.0  0.08023658338803268  0.6021387116862776  0.7858330512853046  1.0000
  C   C856      1.0  0.08726828711354884  0.5765045371977312  0.626564570746034  1.0000
  C   C857      1.0  0.09553761440700483  0.575828485062694  0.5859650642888646  1.0000
  C   C858      1.0  0.10497005832236755  0.5863733776242532  0.5740424835297844  1.0000
  C   C859      1.0  0.10471584124953555  0.5979951926208334  0.6033114853637073  1.0000
  C   C860      1.0  0.097071212597923  0.5983975238103802  0.6440378652785552  1.0000
  C   C861      1.0  0.0891138985596851  0.5870470672619482  0.6591640008440216  1.0000
  C   C862      1.0  0.11562445931670705  0.5847566225833384  0.5306905278935309  1.0000
  C   C863      1.0  0.12394058451458152  0.5406141124622438  0.499254104490931  1.0000
  C   C864      1.0  0.12373639466898949  0.55019443711681  0.4627110244167653  1.0000
  C   C865      1.0  0.12179007018899425  0.5642371998889252  0.47283975545477785  1.0000
  C   C866      1.0  0.1199801970754722  0.5689855713189932  0.5182287349393164  1.0000
  C   C867      1.0  0.1224944924086748  0.559432145868074  0.5536229053689476  1.0000
  C   C868      1.0  0.12404237647130971  0.5455470725890162  0.5445902200347701  1.0000
  C   C869      1.0  0.13115479884562578  0.5912648886411583  0.5367416869722601  1.0000
  C   C870      1.0  0.13752476535513974  0.5924631007988524  0.579991438989828  1.0000
  C   C871      1.0  0.15022561450778404  0.5990852468678927  0.5846540385595186  1.0000
  C   C872      1.0  0.15745234876633032  0.604202785375617  0.5457038870521717  1.0000
  C   C873      1.0  0.15153980676996714  0.6019787602401477  0.5024788048735968  1.0000
  C   C874      1.0  0.1390107704744318  0.594875227660176  0.49799241843957104  1.0000
  C   C875      1.0  0.10806358755631455  0.6067490562648651  0.4827817005689857  1.0000
  C   C876      1.0  0.09912289404948056  0.613693605291795  0.4530298747433413  1.0000
  C   C877      1.0  0.08833062624822262  0.6065832698008208  0.43077767997159067  1.0000
  C   C878      1.0  0.08632363173816757  0.5924961183199466  0.43904560029698303  1.0000
  C   C879      1.0  0.0955216581586304  0.5856643742438005  0.47056660600470196  1.0000
  C   C880      1.0  0.10642337827729939  0.5925887685175295  0.49193421083541533  1.0000
  H   H537      1.0  0.06235343306563658  0.5742186210202562  0.7743932945179458  1.0000
  H   H538      1.0  0.10142556223992999  0.5658805592114103  0.7052049689305199  1.0000
  H   H539      1.0  0.10193024321461207  0.5428202114526927  0.7429744924289126  1.0000
  H   H540      1.0  0.06300067831432504  0.5508378677181183  0.8074050633533891  1.0000
  H   H541      1.0  0.10999722826694255  0.5915488824805405  0.7302589525593407  1.0000
  H   H542      1.0  0.1202376354839258  0.6065581096332081  0.7902947678803371  1.0000
  H   H543      1.0  0.07940941854220593  0.6155808813796979  0.8426124478592156  1.0000
  H   H544      1.0  0.06906477095678432  0.6007584184246992  0.7860022158955429  1.0000
  H   H545      1.0  0.07995279391736525  0.5678232018141195  0.634222793622026  1.0000
  H   H546      1.0  0.09469796951628583  0.5663542914095885  0.564808915220949  1.0000
  H   H547      1.0  0.11124125087367433  0.6068367866174155  0.5949660312586225  1.0000
  H   H548      1.0  0.09800135001553036  0.6074346973691411  0.6663358754655787  1.0000
  H   H549      1.0  0.12377427745015174  0.5463176169248747  0.4267846903174264  1.0000
  H   H550      1.0  0.12089215792614845  0.5712357928228485  0.44478662425694204  1.0000
  H   H551      1.0  0.12293384384546294  0.562648309529646  0.5900073936210151  1.0000
  H   H552      1.0  0.12507287496163036  0.5385673838553577  0.5759561581831041  1.0000
  H   H553      1.0  0.13249725718797958  0.5893124214807881  0.613013780613411  1.0000
  H   H554      1.0  0.15405088990397497  0.6014072163498422  0.6193891718617633  1.0000
  H   H555      1.0  0.1569396265196705  0.6060844925750148  0.47117630345410216  1.0000
  H   H556      1.0  0.13469715081370318  0.5925986609356351  0.46418416623092296  1.0000
  H   H557      1.0  0.11583386079645107  0.6123949138643153  0.5011219637289779  1.0000
  H   H558      1.0  0.10140974620701225  0.6247980929352224  0.4459919221048893  1.0000
  H   H559      1.0  0.0777052389688678  0.5870027776409888  0.4220234113917635  1.0000
  H   H560      1.0  0.09356252962471552  0.5746218662451595  0.47789707244835755  1.0000
  C   C881      1.0  0.9311333005521061  0.43123550233543323  0.19263584748248533  1.0000
  C   C882      1.0  0.9385365333509305  0.42339515521319315  0.2255017118415981  1.0000
  C   C883      1.0  0.9462939831357507  0.4297577840959985  0.2611919203391462  1.0000
  C   C884      1.0  0.9470887682074034  0.4442469533201406  0.2635359074697593  1.0000
  C   C885      1.0  0.9391271158444804  0.45195449954113126  0.23193278644082052  1.0000
  C   C886      1.0  0.9312042797529365  0.44571378317701166  0.1969851400969639  1.0000
  H   H561      1.0  0.9387196750919413  0.41210324866507175  0.2238541190231322  1.0000
  H   H562      1.0  0.9511630745051012  0.4231764128002942  0.2885063660722751  1.0000
  H   H563      1.0  0.9377251998636342  0.4630863699435284  0.23495448929120047  1.0000
  H   H564      1.0  0.925144302752359  0.4519625844534819  0.17269380691930022  1.0000
  C   C887      1.0  0.9646250664407775  0.4726964293218076  0.25783365039964645  1.0000
  C   C888      1.0  0.9596933742196414  0.46720736243052396  0.2993462933258308  1.0000
  C   C889      1.0  0.9596765670840894  0.4760736876106068  0.3382129198068725  1.0000
  C   C890      1.0  0.9632683372636209  0.48978601914401954  0.33529870696924813  1.0000
  C   C891      1.0  0.9667655280885087  0.49522024845827567  0.2928753945579481  1.0000
  C   C892      1.0  0.9679456331882044  0.4867503747251396  0.2539114984260194  1.0000
  C   C893      1.0  0.9546953611146496  0.4514220556468481  0.3076402931953015  1.0000
  C   C894      1.0  0.9697746597302309  0.4446658673232322  0.3198388237248328  1.0000
  C   C895      1.0  0.9754089792036632  0.44571129167130713  0.3641726389530105  1.0000
  C   C896      1.0  0.9893074262777406  0.44249054101882646  0.371918968396835  1.0000
  C   C897      1.0  0.9980195349235749  0.4381301625570609  0.33594047520933934  1.0000
  C   C898      1.0  0.9923274707172275  0.43674588362338834  0.29141846435227153  1.0000
  C   C899      1.0  0.9783722501228154  0.44004108870543635  0.2836189185414763  1.0000
  C   C900      1.0  0.9297570959074755  0.45910524209393583  0.3368430388902144  1.0000
  C   C901      1.0  0.9185997606645111  0.45907394687213526  0.3665197979200656  1.0000
  C   C902      1.0  0.9195778941299612  0.4523456364314422  0.40973783157321386  1.0000
  C   C903      1.0  0.9319155059082782  0.44532752256022623  0.41961986422129566  1.0000
  C   C904      1.0  0.9423112064774143  0.4429261930596685  0.38598430088559915  1.0000
  C   C905      1.0  0.9416583802911846  0.45079938593058266  0.344421613428886  1.0000
  C   C906      1.0  0.9069198396038095  0.4553657306048142  0.4463513969016455  1.0000
  C   C907      1.0  0.9148038104724786  0.5004111955488412  0.4676238466390999  1.0000
  C   C908      1.0  0.9041323588113617  0.4957907842556095  0.4384112330085897  1.0000
  C   C909      1.0  0.9018981752891536  0.48172208451632037  0.4324023650824201  1.0000
  C   C910      1.0  0.9096632840260286  0.4718098162757906  0.4577100956265983  1.0000
  C   C911      1.0  0.9210321030965885  0.4767952218420758  0.4836169508320369  1.0000
  C   C912      1.0  0.9234548142706065  0.4907411435958786  0.4894496056225417  1.0000
  C   C913      1.0  0.9068617843256302  0.44594799319644496  0.49263553911536123  1.0000
  C   C914      1.0  0.910130679318743  0.43184108476791555  0.4917192308099043  1.0000
  C   C915      1.0  0.9105054802370078  0.42407963268044946  0.5317654280210862  1.0000
  C   C916      1.0  0.9075527994457572  0.4303042765114734  0.5753817033608368  1.0000
  C   C917      1.0  0.9038098988440035  0.4442645494281962  0.5769464760055403  1.0000
  C   C918      1.0  0.9032202151971724  0.4516564474460539  0.5358429999803695  1.0000
  C   C919      1.0  0.8798592456793309  0.456600998662355  0.4420870390185574  1.0000
  C   C920      1.0  0.867066879335298  0.45218388763056516  0.42525516029985594  1.0000
  C   C921      1.0  0.8660415987334176  0.4417973543888422  0.3917640917354045  1.0000
  C   C922      1.0  0.878503401592791  0.43572656587567704  0.3762679085850422  1.0000
  C   C923      1.0  0.8912702185329502  0.44040003336988987  0.3911755398622841  1.0000
  C   C924      1.0  0.8923785813771943  0.4507291968974265  0.42565340198645835  1.0000
  H   H565      1.0  0.9654413562244002  0.46638987408468535  0.22687053547944222  1.0000
  H   H566      1.0  0.9566312337163627  0.4722143502073384  0.3724581805919693  1.0000
  H   H567      1.0  0.9628007294657148  0.495950232848505  0.3672140776745849  1.0000
  H   H568      1.0  0.970699323930449  0.49127261906309466  0.21967927741296184  1.0000
  H   H569      1.0  0.9695193849492453  0.45015621647095444  0.3923949347610845  1.0000
  H   H570      1.0  0.9931625046941992  0.44322179878151585  0.4080884766233913  1.0000
  H   H571      1.0  0.9991265587251339  0.43288955652041367  0.26371071090033876  1.0000
  H   H572      1.0  0.9744966318192639  0.43910321838319577  0.24751143733867392  1.0000
  H   H573      1.0  0.9291018252808944  0.46557231266721577  0.30637966442275555  1.0000
  H   H574      1.0  0.9095341019044874  0.46531319164182355  0.3580615674081553  1.0000
  H   H575      1.0  0.9335585043292881  0.44097713713582215  0.4533576311756778  1.0000
  H   H576      1.0  0.9507061368080393  0.4361690112487367  0.39187686814223  1.0000
  H   H577      1.0  0.8974291844587259  0.5028312899508488  0.4199405721282056  1.0000
  H   H578      1.0  0.8936569686206962  0.4786353337802157  0.40696423681784993  1.0000
  H   H579      1.0  0.9280296751884862  0.4698420371044322  0.502898192136479  1.0000
  H   H580      1.0  0.9318432884341631  0.4944618809993003  0.5130480687507714  1.0000
  H   H581      1.0  0.9124429778490909  0.42648420636629075  0.4588308111694264  1.0000
  H   H582      1.0  0.9131948691723216  0.4132679570216413  0.5296121035032623  1.0000
  H   H583      1.0  0.9026396194925542  0.4499497644558139  0.6099335750019903  1.0000
  H   H584      1.0  0.899800837839366  0.46247897961646883  0.5391311370918748  1.0000
  H   H585      1.0  0.8802134699020806  0.46482890803373694  0.46911813402953734  1.0000
  H   H586      1.0  0.8579001649572708  0.4573693148761215  0.4404658781704413  1.0000
  H   H587      1.0  0.8775317162415591  0.427760878166913  0.34922906019609307  1.0000
  H   H588      1.0  0.9005622017635209  0.43554072396397525  0.3756899295000617  1.0000
  C   C925      1.0  0.9167061853150109  0.4360707679044133  0.6909105593653914  1.0000
  C   C926      1.0  0.9276951190374658  0.4293072532100451  0.7128737645946518  1.0000
  C   C927      1.0  0.9365051757399596  0.43624890941586497  0.7421991546319874  1.0000
  C   C928      1.0  0.9352625231225947  0.4507021662410999  0.7502485706691554  1.0000
  C   C929      1.0  0.9247654478122525  0.45744985950447925  0.7247751997774522  1.0000
  C   C930      1.0  0.9153510865308931  0.45019001215471455  0.6975291247409613  1.0000
  H   H589      1.0  0.9291278927531016  0.41791152700579787  0.7112913706363819  1.0000
  H   H590      1.0  0.9448025825777976  0.430641522969486  0.7584389572148551  1.0000
  H   H591      1.0  0.9229870421065217  0.46839351940210566  0.732859858441753  1.0000
  H   H592      1.0  0.906206236943432  0.45569952027941263  0.6835060834047567  1.0000
  C   C931      1.0  0.9502930239233859  0.4785739180004504  0.7387418529102441  1.0000
  C   C932      1.0  0.948012020297239  0.47374485936464195  0.7842718029033144  1.0000
  C   C933      1.0  0.9491630584256385  0.4834429443533541  0.8198527592567504  1.0000
  C   C934      1.0  0.9509787379347554  0.4974169005993768  0.8118491586348553  1.0000
  C   C935      1.0  0.9525029448683241  0.5020162154742093  0.7662099564976727  1.0000
  C   C936      1.0  0.9523388249274005  0.49257795438349666  0.7296950705252133  1.0000
  C   C937      1.0  0.9438414954684848  0.4577064449924757  0.791567026719837  1.0000
  C   C938      1.0  0.9592786556674938  0.4518103309810437  0.8004622658081961  1.0000
  C   C939      1.0  0.9645862890113365  0.45170234267287923  0.8459499246487069  1.0000
  C   C940      1.0  0.9780584049918178  0.4475293365015628  0.8541367869316934  1.0000
  C   C941      1.0  0.9867419824093087  0.443528295629601  0.8168183690606026  1.0000
  C   C942      1.0  0.9816584373610422  0.44430989134879717  0.7719967958729047  1.0000
  C   C943      1.0  0.9679914737124132  0.44815984304521633  0.7638275549034846  1.0000
  C   C944      1.0  0.922526526479586  0.4659911928811777  0.8418794012148502  1.0000
  C   C945      1.0  0.9134515507396469  0.4655132896285114  0.8787185193569326  1.0000
  C   C946      1.0  0.9143439012335473  0.45515194890752875  0.9132950608370792  1.0000
  C   C947      1.0  0.9242524707718436  0.4446337232999929  0.903920522019712  1.0000
  C   C948      1.0  0.9325783393200493  0.4444520553557198  0.8644135370036644  1.0000
  C   C949      1.0  0.9326971149253099  0.45572518873521295  0.8340061983133469  1.0000
  C   C950      1.0  0.9036160925211617  0.45545483361156935  0.9578734598975598  1.0000
  C   C951      1.0  0.8967325190265449  0.5000932801070507  0.9887178071643259  1.0000
  C   C952      1.0  0.8853712129423243  0.49104877745343384  0.9891301459017814  1.0000
  C   C953      1.0  0.8872548200834999  0.47692402390487404  0.981693951576727  1.0000
  C   C954      1.0  0.9004966537367837  0.47144313784721126  0.9739793404973222  1.0000
  C   C955      1.0  0.9117525511322895  0.48106530073288684  0.9759353063032015  1.0000
  C   C956      1.0  0.9100188282964935  0.4948960471165283  0.9856340772901918  1.0000
  C   C957      1.0  0.9112350652944857  0.4474574962843271  0.0015179293390168436  1.0000
  C   C958      1.0  0.9100196164463964  0.43276389057231973  0.002716178661537283  1.0000
  C   C959      1.0  0.916793460209748  0.42483575731320294  0.035870650748468846  1.0000
  C   C960      1.0  0.9244722125639117  0.43128800552323066  0.06975220762155346  1.0000
  C   C961      1.0  0.9262857872285147  0.44558733257448857  0.06888277201018335  1.0000
  C   C962      1.0  0.9200502742467792  0.4534168009269827  0.034813371934480065  1.0000
  C   C963      1.0  0.8800970479159866  0.4416023430493426  0.9749555612689053  1.0000
  C   C964      1.0  0.8680447796043558  0.4344892354404925  0.9603369195341537  1.0000
  C   C965      1.0  0.8645789071593784  0.4336734470117237  0.9125408686164339  1.0000
  C   C966      1.0  0.8728883599556478  0.4406771895999032  0.8809564261798756  1.0000
  C   C967      1.0  0.8848624204128867  0.44726995313250667  0.8952931268975636  1.0000
  C   C968      1.0  0.8893403717150563  0.4473910283747214  0.9420283747385811  1.0000
  H   H593      1.0  0.9499511492420522  0.47147518069070743  0.7101988491952602  1.0000
  H   H594      1.0  0.9476190216477691  0.48025118351284296  0.8555746861187182  1.0000
  H   H595      1.0  0.9495658770599934  0.5046803546407677  0.8405155115448045  1.0000
  H   H596      1.0  0.9533296779315784  0.496489553990639  0.6948859277059892  1.0000
  H   H597      1.0  0.9583118555474449  0.4553576856812134  0.8749052671011464  1.0000
  H   H598      1.0  0.9820142363996053  0.44670600951049205  0.8899362475733537  1.0000
  H   H599      1.0  0.9871602148942604  0.44120771859731545  0.7410431964620263  1.0000
  H   H600      1.0  0.9645191219026169  0.44864391069499143  0.7265901950747997  1.0000
  H   H601      1.0  0.9214491293710592  0.47497426886374017  0.8202122340535065  1.0000
  H   H602      1.0  0.9051241991909729  0.4736182446060437  0.8823590827397674  1.0000
  H   H603      1.0  0.9253147966825436  0.4356600178491104  0.9286115065890634  1.0000
  H   H604      1.0  0.9401212961581477  0.4360492137167592  0.8607729736208296  1.0000
  H   H605      1.0  0.8745411663341796  0.49488931911490774  0.994007725496983  1.0000
  H   H606      1.0  0.8779866226331806  0.4703289861024515  0.9830049773060731  1.0000
  H   H607      1.0  0.9222277285636701  0.47738357727272934  0.9691616733682467  1.0000
  H   H608      1.0  0.9189624846835476  0.5021788964256478  0.9867442200448802  1.0000
  H   H609      1.0  0.9046178598235926  0.42735922872092097  0.9745044556416033  1.0000
  H   H610      1.0  0.9152243922961938  0.4136111876432189  0.038102213898527845  1.0000
  H   H611      1.0  0.9331945190794693  0.4507001800718116  0.09317340033530436  1.0000
  H   H612      1.0  0.9222617196339683  0.4644511308995315  0.03785657278741112  1.0000
  H   H613      1.0  0.8822249886438345  0.44217770215363833  0.012319794555268881  1.0000
  H   H614      1.0  0.8621053466442069  0.42900572066091747  0.9866067737990617  1.0000
  H   H615      1.0  0.8703751756566152  0.44046601109867795  0.8442512300208983  1.0000
  H   H616      1.0  0.8905140626893255  0.4517979914199154  0.8659959309619342  1.0000
  C   C969      1.0  0.03757591699066921  0.4451223632245006  0.37235245271057044  1.0000
  C   C970      1.0  0.04661186744968804  0.4339968664704155  0.3663400605216875  1.0000
  C   C971      1.0  0.06040465931894727  0.4362370230407542  0.35573907828009327  1.0000
  C   C972      1.0  0.06475069214100326  0.4493862511283098  0.3403465084535019  1.0000
  C   C973      1.0  0.05622141086714357  0.4606632460155919  0.35100846044003614  1.0000
  C   C974      1.0  0.04256728796903171  0.4585590458904515  0.3668510786151154  1.0000
  H   H617      1.0  0.043134037929098215  0.42335819730728325  0.3704740206843837  1.0000
  H   H618      1.0  0.06709823189052905  0.42715149347505954  0.35254257199913386  1.0000
  H   H619      1.0  0.05980799667988216  0.47145875794934294  0.3453562479004521  1.0000
  H   H620      1.0  0.03527168209615786  0.4672278633580953  0.372359501235997  1.0000
  C   C975      1.0  0.06978242911691897  0.4680917818968034  0.2513846020605862  1.0000
  C   C976      1.0  0.08111345577379982  0.4634315920103323  0.2774722519432168  1.0000
  C   C977      1.0  0.0940650363861396  0.4700696260658265  0.2696579042290257  1.0000
  C   C978      1.0  0.09478065338117551  0.48222131078039465  0.24441819195521408  1.0000
  C   C979      1.0  0.08288432737005014  0.4873329727536055  0.2229476786532725  1.0000
  C   C980      1.0  0.07080537125816556  0.4798158145869246  0.22382592492142583  1.0000
  C   C981      1.0  0.0793453649294904  0.4507274242523667  0.313309069769638  1.0000
  C   C982      1.0  0.08251852009504476  0.43856808189287366  0.2760431634129753  1.0000
  C   C983      1.0  0.096181250333583  0.43592921487972314  0.26033552449981523  1.0000
  C   C984      1.0  0.0988436123013051  0.428275924985564  0.21980720814945448  1.0000
  C   C985      1.0  0.08796225340364582  0.42212554732611923  0.19498758799106775  1.0000
  C   C986      1.0  0.07441439938137831  0.42284043677710503  0.2130043238339793  1.0000
  C   C987      1.0  0.07176380738998249  0.4314813908208062  0.25230831131774106  1.0000
  C   C988      1.0  0.09148150776685834  0.4645029143897239  0.37909789154381884  1.0000
  C   C989      1.0  0.10168660911922647  0.4665383090681724  0.41313522082883114  1.0000
  C   C990      1.0  0.1104829578637789  0.4560100185951855  0.4277397655127296  1.0000
  C   C991      1.0  0.10836365619389271  0.44302649739502603  0.40745058507228477  1.0000
  C   C992      1.0  0.0985321515313939  0.4409203152715243  0.37183438609171593  1.0000
  C   C993      1.0  0.09019753093022763  0.4518886275656767  0.355640398924121  1.0000
  C   C994      1.0  0.12081781561888483  0.45814297463194564  0.47153577825085835  1.0000
  C   C995      1.0  0.1347233093576075  0.501477288240751  0.4850936169089079  1.0000
  C   C996      1.0  0.13222666505207967  0.49354483517301034  0.5250446590268307  1.0000
  C   C997      1.0  0.127725280641284  0.47979042557263485  0.5211045333133659  1.0000
  C   C998      1.0  0.12594604244394844  0.47387087142385587  0.47705829792259313  1.0000
  C   C999      1.0  0.12991711159895108  0.481777290412317  0.43768875915236405  1.0000
  C   C1000     1.0  0.1335872457405981  0.49551193534328036  0.44213637869654354  1.0000
  C   C1001     1.0  0.13565364464731058  0.4509245794372022  0.47188115599676134  1.0000
  C   C1002     1.0  0.1425530336587489  0.4473869738913881  0.43077767997159067  1.0000
  C   C1003     1.0  0.15616416382786635  0.44233355055752593  0.43127460101416537  1.0000
  C   C1004     1.0  0.1634065760270673  0.440840587056824  0.47219129111553143  1.0000
  C   C1005     1.0  0.15731575109692048  0.4450851820770305  0.5133969707593877  1.0000
  C   C1006     1.0  0.14351698831355633  0.4493353891039854  0.5136366206238917  1.0000
  C   C1007     1.0  0.11149856121854783  0.43765639029091896  0.5215521146779545  1.0000
  C   C1008     1.0  0.10146457969234106  0.4311839165982784  0.5482871716210176  1.0000
  C   C1009     1.0  0.09053556155419296  0.43854687744275944  0.5668106964421011  1.0000
  C   C1010     1.0  0.08956505762767457  0.4526711842398544  0.556674916878662  1.0000
  C   C1011     1.0  0.09937170962433352  0.45910254550163826  0.5293054926472056  1.0000
  C   C1012     1.0  0.11053527775920899  0.45161564477211585  0.510256852681841  1.0000
  H   H621      1.0  0.05940457020794297  0.4631043545879528  0.25162072766237703  1.0000
  H   H622      1.0  0.1038805674920215  0.46685508482336574  0.2868605353851659  1.0000
  H   H623      1.0  0.1047046923797135  0.4882895323764213  0.24227332566790216  1.0000
  H   H624      1.0  0.061661545542538186  0.4835614085109185  0.20434485792113982  1.0000
  H   H625      1.0  0.10494883612735972  0.4411852380361924  0.27653374078266607  1.0000
  H   H626      1.0  0.10954759210912479  0.42794865276453176  0.20680232631112108  1.0000
  H   H627      1.0  0.0664682620535056  0.4170364379908949  0.1954119092217486  1.0000
  H   H628      1.0  0.06090976800889703  0.43317608808792013  0.2610365003534898  1.0000
  H   H629      1.0  0.08553070812779133  0.4736058159813464  0.3679224544799574  1.0000
  H   H630      1.0  0.10256279389289367  0.4765076092665828  0.43113715476834685  1.0000
  H   H631      1.0  0.11423281092992446  0.4340381321443652  0.4192639136872528  1.0000
  H   H632      1.0  0.09676729222860982  0.43037730177215183  0.35717345320440474  1.0000
  H   H633      1.0  0.13223846789230181  0.4982822938924187  0.5594097447441796  1.0000
  H   H634      1.0  0.12567789511419858  0.4740924794689299  0.5524422773599935  1.0000
  H   H635      1.0  0.12999709511918373  0.4770355379420276  0.4030205868416718  1.0000
  H   H636      1.0  0.13496806744867323  0.5021446812567596  0.4115175842434283  1.0000
  H   H637      1.0  0.13756273819862463  0.4488264906386968  0.39648307950850775  1.0000
  H   H638      1.0  0.161294414314283  0.43950997226602617  0.39904874276378727  1.0000
  H   H639      1.0  0.16291122547498202  0.44394221545081175  0.54680345701872  1.0000
  H   H640      1.0  0.13909968024604435  0.45261767197696795  0.5469021363746923  1.0000
  H   H641      1.0  0.11946855672294254  0.4308956149489886  0.5066339106125728  1.0000
  H   H642      1.0  0.10245483967330245  0.42005623794181135  0.5549691737254266  1.0000
  H   H643      1.0  0.08072556851262695  0.45908013402612174  0.5702186584858583  1.0000
  H   H644      1.0  0.09812929586445916  0.470071539416175  0.5216930851864863  1.0000
  C   C1013     1.0  0.025455126892310373  0.45038568423792674  0.8547605814319468  1.0000
  C   C1014     1.0  0.035259129420371925  0.4400659763349911  0.8462389141911972  1.0000
  C   C1015     1.0  0.04888296895782118  0.44351313106504237  0.8347674390594189  1.0000
  C   C1016     1.0  0.053301760170780595  0.4572702945202053  0.8310176235324719  1.0000
  C   C1017     1.0  0.043246432006796814  0.46764835606121796  0.8415904116723598  1.0000
  C   C1018     1.0  0.029774364522085442  0.46421633218912334  0.8544398735250368  1.0000
  H   H645      1.0  0.03200540327704316  0.42905712759147063  0.8473842995730183  1.0000
  H   H646      1.0  0.05613766673798444  0.43523186442006406  0.8308273133459539  1.0000
  H   H647      1.0  0.04556924252230352  0.4786977316753215  0.839271446807011  1.0000
  H   H648      1.0  0.022641837135827805  0.4723746566597154  0.8641738871391603  1.0000
  C   C1019     1.0  0.06251755217797296  0.48399157753168154  0.7682223105069648  1.0000
  C   C1020     1.0  0.07193942055294758  0.4768236123672375  0.7979706120698958  1.0000
  C   C1021     1.0  0.0843073574879611  0.48354009197260056  0.8089028750065399  1.0000
  C   C1022     1.0  0.08673664358528656  0.49706923488796806  0.7974102542984818  1.0000
  C   C1023     1.0  0.07747973548950113  0.5039866301694554  0.7680214275323068  1.0000
  C   C1024     1.0  0.06586914121479284  0.4971606177726793  0.7524688561785318  1.0000
  C   C1025     1.0  0.06938113332656651  0.4610233058033205  0.8150068980259684  1.0000
  C   C1026     1.0  0.07359404014914041  0.4527660039589245  0.7684725331596087  1.0000
  C   C1027     1.0  0.08753638454850664  0.4497248663635386  0.7575649400619577  1.0000
  C   C1028     1.0  0.09103643110382263  0.44202890820228236  0.7180755763594766  1.0000
  C   C1029     1.0  0.08074377235305595  0.4377111737596294  0.6874603061690746  1.0000
  C   C1030     1.0  0.06702628437153779  0.44154784181070483  0.6965705252829447  1.0000
  C   C1031     1.0  0.06362833178137971  0.449183920403451  0.7357744237056489  1.0000
  C   C1032     1.0  0.07642051525835591  0.4661464780012934  0.9003222497894368  1.0000
  C   C1033     1.0  0.08589821110366737  0.46574497070803417  0.9366256799990984  1.0000
  C   C1034     1.0  0.09684703156187813  0.4562116080006712  0.9368089416601899  1.0000
  C   C1035     1.0  0.09637402730731853  0.4454373550921627  0.9044667827402729  1.0000
  C   C1036     1.0  0.08665862926433532  0.4454993177728172  0.8690831850987816  1.0000
  C   C1037     1.0  0.07779000040076862  0.4570170376122938  0.8619430288416439  1.0000
  C   C1038     1.0  0.1096015948077642  0.45793005333574194  0.9735211863445937  1.0000
  C   C1039     1.0  0.11652430281276997  0.5014256164336832  0.01789479635303152  1.0000
  C   C1040     1.0  0.11686451134021177  0.49079217783444484  0.05113247042839697  1.0000
  C   C1041     1.0  0.1151811679782826  0.4769551071622225  0.038099746914628536  1.0000
  C   C1042     1.0  0.11245838264212159  0.4735317861068368  0.9910825874449475  1.0000
  C   C1043     1.0  0.11288724567210627  0.4842492758118826  0.9582752258468754  1.0000
  C   C1044     1.0  0.11450547272327866  0.49777914987692534  0.9717097153099595  1.0000
  C   C1045     1.0  0.12493689775673841  0.4540735301729107  0.9549236520065311  1.0000
  C   C1046     1.0  0.1280300025214162  0.4548313527431226  0.9079487543010092  1.0000
  C   C1047     1.0  0.14049288256988482  0.45000283678667613  0.8903838289379422  1.0000
  C   C1048     1.0  0.1506532950449597  0.4447431685580852  0.9212246519419952  1.0000
  C   C1049     1.0  0.14812689291528106  0.44505459861994434  0.9695176239022895  1.0000
  C   C1050     1.0  0.135606968817316  0.45021720125567327  0.9855036795698  1.0000
  C   C1051     1.0  0.10687859048125142  0.4338691483932795  0.014807924030855846  1.0000
  C   C1052     1.0  0.10107296400156959  0.42468193491498213  0.04671445469100916  1.0000
  C   C1053     1.0  0.09070428451485608  0.4296323297329047  0.07787210891298733  1.0000
  C   C1054     1.0  0.08712811482164966  0.4437566339447365  0.07744391099332187  1.0000
  C   C1055     1.0  0.09321077625979034  0.45227048609056847  0.044928005921639445  1.0000
  C   C1056     1.0  0.10347170657645863  0.44783594859654596  0.013856373098265928  1.0000
  H   H649      1.0  0.05271017386713307  0.47930891309457724  0.7540653471876548  1.0000
  H   H650      1.0  0.09238425708870501  0.4778905362980165  0.8277224378955402  1.0000
  H   H651      1.0  0.09650667308546972  0.5018147828138412  0.8081733526248875  1.0000
  H   H652      1.0  0.05863530985042884  0.5021058523088793  0.7288316261604558  1.0000
  H   H653      1.0  0.09601655511524686  0.45251404881137175  0.7807475401900186  1.0000
  H   H654      1.0  0.10169136270318863  0.4391168158088122  0.7105019357886035  1.0000
  H   H655      1.0  0.05786978778592057  0.43825955698331615  0.6771588862581107  1.0000
  H   H656      1.0  0.05268002952245506  0.4513241103480551  0.7403735865465001  1.0000
  H   H657      1.0  0.06910693496179454  0.47487278028997315  0.8987222345176005  1.0000
  H   H658      1.0  0.08499063508047114  0.4736993600278988  0.9644039187052971  1.0000
  H   H659      1.0  0.10410262766146786  0.4372365934225982  0.9062007199952145  1.0000
  H   H660      1.0  0.08676071239473812  0.4369530540311374  0.8436274355206449  1.0000
  H   H661      1.0  0.11819280568970215  0.4930835763341725  0.08863379753430785  1.0000
  H   H662      1.0  0.11533199748420199  0.4688513929639816  0.06419832201167038  1.0000
  H   H663      1.0  0.11126520204709459  0.4818062825634854  0.9223030763322637  1.0000
  H   H664      1.0  0.1139731105320578  0.5059886923779819  0.9452706964348134  1.0000
  H   H665      1.0  0.12091650916501358  0.45932383478654526  0.8822181122312355  1.0000
  H   H666      1.0  0.14276801671413886  0.4505467691662018  0.8533861189737614  1.0000
  H   H667      1.0  0.1555648627118863  0.4403646774461355  0.9944870252259913  1.0000
  H   H668      1.0  0.13393255180547045  0.45012664184267176  0.022568955504421673  1.0000
  H   H669      1.0  0.11475722399438855  0.429094268669769  0.9912059366399127  1.0000
  H   H670      1.0  0.10391338452688893  0.413845149859892  0.04799763874492022  1.0000
  H   H671      1.0  0.07904447293964771  0.447871355516606  0.0998043006303707  1.0000
  H   H672      1.0  0.0897556312986574  0.4632732716829767  0.04449346432909005  1.0000
  C   C1057     1.0  0.6108197265773672  0.6111125997174445  0.007833408121243224  1.0000
  C   C1058     1.0  0.6004882678201829  0.6161159083972114  0.0364976170851642  1.0000
  C   C1059     1.0  0.5929907327886789  0.6070476069181652  0.06382404531151835  1.0000
  C   C1060     1.0  0.5959924914247846  0.5929088022673616  0.06482070680683844  1.0000
  C   C1061     1.0  0.607478019808564  0.5882787112902854  0.03810679544005513  1.0000
  C   C1062     1.0  0.6149406537416052  0.5972955309719238  0.010515272172406864  1.0000
  H   H673      1.0  0.5975679506225225  0.6272823451595041  0.03613497045196604  1.0000
  H   H674      1.0  0.5850937024887725  0.6116559176410331  0.08806075241712592  1.0000
  H   H675      1.0  0.6111074573931377  0.5773585053200841  0.040905412460683445  1.0000
  H   H676      1.0  0.6237750733427467  0.5938356168392529  0.9897715617156013  1.0000
  C   C1063     1.0  0.5857119660911962  0.5613552366395427  0.04012796010613036  1.0000
  C   C1064     1.0  0.5876850468100273  0.5659422983912032  0.08619747472060636  1.0000
  C   C1065     1.0  0.5867819820875739  0.5559355155721497  0.12086917129401192  1.0000
  C   C1066     1.0  0.5845998216596947  0.541840435350318  0.11113374797480319  1.0000
  C   C1067     1.0  0.5835106522001041  0.5377381928452976  0.06577120046061435  1.0000
  C   C1068     1.0  0.5835545036423875  0.5474342030361196  0.03017568890217252  1.0000
  C   C1069     1.0  0.5879541067794217  0.5824970853982134  0.09930737958779598  1.0000
  C   C1070     1.0  0.5714379502834459  0.585092922609204  0.10522214969952057  1.0000
  C   C1071     1.0  0.564406189636235  0.580846340468898  0.1453212108514019  1.0000
  C   C1072     1.0  0.550025877426183  0.5819411230943109  0.14773991235153688  1.0000
  C   C1073     1.0  0.5423312679548795  0.5873007422367783  0.1113659968876094  1.0000
  C   C1074     1.0  0.5490972338679494  0.5910761510604686  0.07059168699986056  1.0000
  C   C1075     1.0  0.5634551753218154  0.589865825887368  0.06766690137409624  1.0000
  C   C1076     1.0  0.6099169155470797  0.5780201841108603  0.15047474021705456  1.0000
  C   C1077     1.0  0.617678058814076  0.5790759189288934  0.19101891574962518  1.0000
  C   C1078     1.0  0.6124118763488818  0.5866455768798213  0.22917258388376716  1.0000
  C   C1079     1.0  0.600162574814227  0.594138894348787  0.22269393173791519  1.0000
  C   C1080     1.0  0.5931364156075799  0.5938369258810653  0.18094445835739736  1.0000
  C   C1081     1.0  0.5972249779706286  0.5848331420179739  0.14515204624116368  1.0000
  C   C1082     1.0  0.6191094604236723  0.5836320589542721  0.2808724606090048  1.0000
  C   C1083     1.0  0.6065611667959708  0.5392780910235525  0.2863544512595366  1.0000
  C   C1084     1.0  0.6202293050725362  0.543286424498226  0.28141872132956564  1.0000
  C   C1085     1.0  0.6239578973288308  0.5569721823675434  0.2806585378623077  1.0000
  C   C1086     1.0  0.6144049996303431  0.56752566684846  0.28878689738425345  1.0000
  C   C1087     1.0  0.6003693264710187  0.5633381281883187  0.29420474645340333  1.0000
  C   C1088     1.0  0.5966674809923964  0.549349100032192  0.2945353222959105  1.0000
  C   C1089     1.0  0.6132135491252171  0.5943436109802002  0.3204108115632007  1.0000
  C   C1090     1.0  0.6160135260006623  0.6085926674914691  0.31653905654637376  1.0000
  C   C1091     1.0  0.6108329250273906  0.6181172989707194  0.3476910719480107  1.0000
  C   C1092     1.0  0.6017538408592039  0.6136236320106483  0.38271730935037385  1.0000
  C   C1093     1.0  0.5982469728621049  0.599730143945518  0.386565804233293  1.0000
  C   C1094     1.0  0.6046959893943644  0.5901192054525144  0.35773381097581886  1.0000
  C   C1095     1.0  0.642715549439621  0.5823530049500032  0.3248256554641465  1.0000
  C   C1096     1.0  0.6568986494449405  0.5837312123786469  0.3279319406196456  1.0000
  C   C1097     1.0  0.6648832145819271  0.588303152108145  0.29168771802356736  1.0000
  C   C1098     1.0  0.65805927524206  0.593320056458892  0.25292259030866854  1.0000
  C   C1099     1.0  0.643839873488282  0.5921523397412739  0.2487741806688479  1.0000
  C   C1100     1.0  0.6358772797921417  0.5861040674814684  0.2833669337574756  1.0000
  H   H677      1.0  0.5851867233427448  0.5689137617614383  0.011523246551036639  1.0000
  H   H678      1.0  0.5870218750694838  0.5591034129782427  0.15720114803165122  1.0000
  H   H679      1.0  0.5838222904718547  0.5346774585295343  0.1400912049848707  1.0000
  H   H680      1.0  0.5816043471821888  0.5442976538716008  0.9941804143699345  1.0000
  H   H681      1.0  0.5701360378018067  0.5770621298545332  0.17511215599316388  1.0000
  H   H682      1.0  0.5449028421937486  0.5780707120769715  0.18018004577488347  1.0000
  H   H683      1.0  0.5432949619359476  0.5940585330696083  0.039344868931235996  1.0000
  H   H684      1.0  0.5682691022629675  0.5923567537499426  0.03465865680136637  1.0000
  H   H685      1.0  0.6141303673217297  0.5717713081225776  0.12271905679222098  1.0000
  H   H686      1.0  0.6272652401609208  0.5727539015436784  0.19327867300139054  1.0000
  H   H687      1.0  0.5958964468719348  0.6000315753281564  0.251776852500576  1.0000
  H   H688      1.0  0.5837243196845004  0.599629690029626  0.17680344966927464  1.0000
  H   H689      1.0  0.6286119068152897  0.5361077867520162  0.2749763690896606  1.0000
  H   H690      1.0  0.6347908874908075  0.5595362806564453  0.27277934371419194  1.0000
  H   H691      1.0  0.5921046124038745  0.571071056567106  0.2956310155734742  1.0000
  H   H692      1.0  0.5856479226173792  0.5461666213048952  0.29738433627333893  1.0000
  H   H693      1.0  0.6220596251449749  0.6122513443744994  0.2877789582482508  1.0000
  H   H694      1.0  0.6133080367842699  0.6292224666859033  0.34275287503414037  1.0000
  H   H695      1.0  0.5913546024434794  0.5963197375732153  0.4143440429394917  1.0000
  H   H696      1.0  0.6019028617780232  0.5793124971748707  0.364440482919221  1.0000
  H   H697      1.0  0.6364005317212624  0.578279024330723  0.35376901542336087  1.0000
  H   H698      1.0  0.6617920140377382  0.5805102594931807  0.3609620356211979  1.0000
  H   H699      1.0  0.6638475453464752  0.5976256084529737  0.22325428950932927  1.0000
  H   H700      1.0  0.6387379854131245  0.5964636137091466  0.21734163395523265  1.0000
  C   C1101     1.0  0.5976334706025995  0.6144291948307778  0.5025739599668558  1.0000
  C   C1102     1.0  0.588926705123784  0.6187714044098775  0.5375099762437585  1.0000
  C   C1103     1.0  0.5846343755345956  0.6095008820085809  0.5719807898425063  1.0000
  C   C1104     1.0  0.5876415609146797  0.5952675923272682  0.569478563316066  1.0000
  C   C1105     1.0  0.5973515580535846  0.5914488894947031  0.5348738277342132  1.0000
  C   C1106     1.0  0.6026768981517141  0.6010150547487783  0.5031907059416826  1.0000
  H   H701      1.0  0.5856101039521571  0.629667541890391  0.538123197955872  1.0000
  H   H702      1.0  0.5788360235373746  0.6137635590322791  0.6010066175492117  1.0000
  H   H703      1.0  0.6006514665864658  0.5805796660565962  0.5331575117928381  1.0000
  H   H704      1.0  0.6104983968994764  0.5978115934016386  0.476878560524215  1.0000
  C   C1107     1.0  0.5765985793131868  0.5654651596873117  0.5431664178985985  1.0000
  C   C1108     1.0  0.5798042769050419  0.5689864258553463  0.588876105290047  1.0000
  C   C1109     1.0  0.5817570517783123  0.557794613404136  0.6209997599217396  1.0000
  C   C1110     1.0  0.5804638174813154  0.5442411122948168  0.6058630515681335  1.0000
  C   C1111     1.0  0.577796026639631  0.5411414124242413  0.5598749474223347  1.0000
  C   C1112     1.0  0.5752426181110589  0.5517377859954022  0.5287839017656377  1.0000
  C   C1113     1.0  0.5810163938004049  0.5848996615403752  0.6063775939242747  1.0000
  C   C1114     1.0  0.5647733275280442  0.5882394996460689  0.6197979863365057  1.0000
  C   C1115     1.0  0.5583608125516174  0.5845662417535487  0.6618318677179865  1.0000
  C   C1116     1.0  0.5439933184689509  0.584964367240841  0.6669032817624194  1.0000
  C   C1117     1.0  0.5357983387192081  0.5901794509477782  0.631184879163165  1.0000
  C   C1118     1.0  0.5417731921538066  0.5934405198337295  0.5892355800868032  1.0000
  C   C1119     1.0  0.5559732336013569  0.5926940716110843  0.5838892735507332  1.0000
  C   C1120     1.0  0.6055559253463965  0.580198925304701  0.6432942458460498  1.0000
  C   C1121     1.0  0.6143333731678096  0.5800465076216866  0.6811448273868483  1.0000
  C   C1122     1.0  0.6111296887545218  0.586662993653923  0.7233866402684136  1.0000
  C   C1123     1.0  0.5987554494554502  0.5942697317433457  0.7238166003194357  1.0000
  C   C1124     1.0  0.5898631973246151  0.5944818714757321  0.6857651358039794  1.0000
  C   C1125     1.0  0.5923654876639455  0.5863018412564424  0.6478757873733345  1.0000
  C   C1126     1.0  0.6192889700744547  0.5829887441157552  0.7720743296525971  1.0000
  C   C1127     1.0  0.5984359086819483  0.5420130870451344  0.7802224250457375  1.0000
  C   C1128     1.0  0.6127022408247441  0.5429087818645467  0.7735509957294682  1.0000
  C   C1129     1.0  0.6193694059812901  0.5557609678597305  0.7737201603397064  1.0000
  C   C1130     1.0  0.6121103779454046  0.5679916605285075  0.7819175954108327  1.0000
  C   C1131     1.0  0.5976657211430227  0.5667338316239269  0.7910101932111363  1.0000
  C   C1132     1.0  0.5909270757742121  0.553941129116522  0.7899035747191614  1.0000
  C   C1133     1.0  0.6167828304989628  0.5941108360561167  0.8129134859742706  1.0000
  C   C1134     1.0  0.6188515650042604  0.6084991669932122  0.8050966712761802  1.0000
  C   C1135     1.0  0.6171265975085974  0.6179353702410405  0.8417349064436049  1.0000
  C   C1136     1.0  0.6124549925807454  0.6132483828441596  0.8854780552410343  1.0000
  C   C1137     1.0  0.6100474810741163  0.5992230032654409  0.8933970735578104  1.0000
  C   C1138     1.0  0.612540329186214  0.589833229984299  0.8576187584924299  1.0000
  C   C1139     1.0  0.6450508122988518  0.5759072928192376  0.7969027604677671  1.0000
  C   C1140     1.0  0.659744112935197  0.576816292366657  0.792448092398161  1.0000
  C   C1141     1.0  0.6654321161266917  0.5852674004433063  0.7572794747821808  1.0000
  C   C1142     1.0  0.6568480384014201  0.5930735547999542  0.728951451092708  1.0000
  C   C1143     1.0  0.6425051200270344  0.5928136431897377  0.7360916073498455  1.0000
  C   C1144     1.0  0.6361461620355998  0.5836825885747166  0.767214371370962  1.0000
  H   H705      1.0  0.5745780641210841  0.5732676560768454  0.5164983219470881  1.0000
  H   H706      1.0  0.5843798971733138  0.559731015801956  0.6570529674787572  1.0000
  H   H707      1.0  0.5821988887541282  0.5360983179402796  0.631124966697039  1.0000
  H   H708      1.0  0.5720977184475435  0.5498096834557016  0.49244875319155657  1.0000
  H   H709      1.0  0.564463308889688  0.579938051479394  0.6895642910089124  1.0000
  H   H710      1.0  0.5392450755228562  0.5812101545549054  0.6986357432329361  1.0000
  H   H711      1.0  0.5361884432872016  0.5969619984462984  0.5578766904638959  1.0000
  H   H712      1.0  0.5603798586560069  0.5951126050557176  0.550817592249164  1.0000
  H   H713      1.0  0.6090242108191121  0.5744459725889063  0.611667512256932  1.0000
  H   H714      1.0  0.623977345779637  0.5739373223495261  0.6798760928100618  1.0000
  H   H715      1.0  0.5951953545416093  0.5991301521311198  0.755686508035771  1.0000
  H   H716      1.0  0.5807940163684868  0.6010412423141949  0.687678810457299  1.0000
  H   H717      1.0  0.6183420948031381  0.5336744457624051  0.7642998061070664  1.0000
  H   H718      1.0  0.6299970846642801  0.555588903927652  0.7606275243598118  1.0000
  H   H719      1.0  0.5912822172086052  0.5757718093633342  0.7963600240099196  1.0000
  H   H720      1.0  0.5796594602911351  0.553912618463663  0.795792617713079  1.0000
  H   H721      1.0  0.6219868093841059  0.6124654872936158  0.7708373134402302  1.0000
  H   H722      1.0  0.6189101237303932  0.6287363410212682  0.8367445504415779  1.0000
  H   H723      1.0  0.6050975513843916  0.5953501008851548  0.9246220411976125  1.0000
  H   H724      1.0  0.6111055768762486  0.5790565585582916  0.8663871241231101  1.0000
  H   H725      1.0  0.6402820169955231  0.5704949889600794  0.8260589858948645  1.0000
  H   H726      1.0  0.6665028396517488  0.5707075437518703  0.8151972082124864  1.0000
  H   H727      1.0  0.6607099947790289  0.6004436957255606  0.701634890801951  1.0000
  H   H728      1.0  0.6360134032091332  0.5994247745124479  0.7132226666032682  1.0000
  C   C1145     1.0  0.5027872976956211  0.590913996642841  0.1528656000417545  1.0000
  C   C1146     1.0  0.49446248635719325  0.6019576346300246  0.13930846623624768  1.0000
  C   C1147     1.0  0.48009566465642445  0.6003296352612405  0.1324865509021207  1.0000
  C   C1148     1.0  0.47388516042466977  0.5871944819284955  0.13628077213925513  1.0000
  C   C1149     1.0  0.4821516014017269  0.5760927653663087  0.1518745773667757  1.0000
  C   C1150     1.0  0.4964631082885182  0.5780549422485441  0.1606365993245721  1.0000
  H   H729      1.0  0.4987744632908683  0.6124220685741165  0.13480904003018274  1.0000
  H   H730      1.0  0.47451426604416275  0.6098045327467906  0.12343060543403542  1.0000
  H   H731      1.0  0.47754273239265216  0.5658696564216749  0.1566171777000581  1.0000
  H   H732      1.0  0.5027850676633916  0.5691765562570572  0.17197168548934585  1.0000
  C   C1151     1.0  0.46174434608102144  0.5629492888225455  0.07491560492280337  1.0000
  C   C1152     1.0  0.453260876472447  0.5705070992857253  0.10563625056833283  1.0000
  C   C1153     1.0  0.4399402440408373  0.5651704418096738  0.11574982727667822  1.0000
  C   C1154     1.0  0.43619327862359897  0.5520057505593767  0.1028302325960066  1.0000
  C   C1155     1.0  0.4449262581394625  0.5443014480637791  0.07320105111278488  1.0000
  C   C1156     1.0  0.45758533968213266  0.5498067264725498  0.05907263432145274  1.0000
  C   C1157     1.0  0.4575398615229919  0.5858456844309213  0.12358496814087779  1.0000
  C   C1158     1.0  0.4529675418122361  0.5943601670050745  0.07682293590323913  1.0000
  C   C1159     1.0  0.43926083371347013  0.5983517240928252  0.06866708713212964  1.0000
  C   C1160     1.0  0.4351968818456238  0.6030484067752094  0.02571192823476614  1.0000
  C   C1161     1.0  0.4446193887202869  0.6044430406309258  0.9895601059528035  1.0000
  C   C1162     1.0  0.45856592303896376  0.6015225529453628  0.9981663554986724  1.0000
  C   C1163     1.0  0.46254758849093736  0.5965552164210295  0.04029959170026787  1.0000
  C   C1164     1.0  0.4518582417960494  0.5792738381408808  0.20945503885541894  1.0000
  C   C1165     1.0  0.44332479758182425  0.5799492714996523  0.24814404249571057  1.0000
  C   C1166     1.0  0.43319348708215627  0.5901321128601668  0.2518526241489119  1.0000
  C   C1167     1.0  0.4335118113373408  0.6009028456357771  0.2182713344590001  1.0000
  C   C1168     1.0  0.4422481102468583  0.6004038649126658  0.1803171395944307  1.0000
  C   C1169     1.0  0.4508958476295696  0.5889487428187122  0.17346562045351202  1.0000
  C   C1170     1.0  0.4236031973484959  0.5902761179532561  0.29813747121517026  1.0000
  C   C1171     1.0  0.41374362941832316  0.5473954474278212  0.3444776492060274  1.0000
  C   C1172     1.0  0.4146729561720806  0.5581769905633939  0.37665910174621803  1.0000
  C   C1173     1.0  0.41697751623506185  0.5716528371275035  0.36253738105404115  1.0000
  C   C1174     1.0  0.41911214436489974  0.5747328204147416  0.3152643307229746  1.0000
  C   C1175     1.0  0.41691209967314175  0.5640666901589286  0.28318860606418284  1.0000
  C   C1176     1.0  0.4151175429695742  0.5504095837625073  0.2979256630261012  1.0000
  C   C1177     1.0  0.40823564551841274  0.5972191595965454  0.29287821396811875  1.0000
  C   C1178     1.0  0.40054002681970846  0.5957309606492086  0.2513500642859959  1.0000
  C   C1179     1.0  0.38758609439978725  0.601860607972416  0.24454894210187736  1.0000
  C   C1180     1.0  0.38174879807285067  0.6091306590825752  0.28062999133433  1.0000
  C   C1181     1.0  0.38924160346948894  0.6109588690361382  0.3226783221929353  1.0000
  C   C1182     1.0  0.4018229535065041  0.6042764217648928  0.3293825271524382  1.0000
  C   C1183     1.0  0.4336358937688818  0.6140258416925318  0.32591289051119837  1.0000
  C   C1184     1.0  0.4428824227358029  0.6223900152020968  0.34942007523515367  1.0000
  C   C1185     1.0  0.45295125373146344  0.616213885118806  0.37786792385687856  1.0000
  C   C1186     1.0  0.45341001227361843  0.6018204351675198  0.38283361001991256  1.0000
  C   C1187     1.0  0.4436509306014959  0.593518413774783  0.36015145519713987  1.0000
  C   C1188     1.0  0.43361768821739277  0.5995538042759756  0.3311249226378917  1.0000
  H   H733      1.0  0.4713451058181472  0.567332292512051  0.06092533922983242  1.0000
  H   H734      1.0  0.4328898945064014  0.5708508201760502  0.13704201288532702  1.0000
  H   H735      1.0  0.42630237587905817  0.5479388671584811  0.11482435588816671  1.0000
  H   H736      1.0  0.46450533248826714  0.5446014851044569  0.03450115750070917  1.0000
  H   H737      1.0  0.4311679215408386  0.5956276144181761  0.0941894452755476  1.0000
  H   H738      1.0  0.42408447958184337  0.6042870834630493  0.019017802666623278  1.0000
  H   H739      1.0  0.4660929947801071  0.6021257978645577  0.9694189445463173  1.0000
  H   H740      1.0  0.4734801708134928  0.5936362611968209  0.04392182891699345  1.0000
  H   H741      1.0  0.4584120644542785  0.5705238089563558  0.20580601724207231  1.0000
  H   H742      1.0  0.44433855462277727  0.5719127576876585  0.2744618267335194  1.0000
  H   H743      1.0  0.4264428298015018  0.6095453813310041  0.2235964954187903  1.0000
  H   H744      1.0  0.44188897959265083  0.6092380511228883  0.1555768153470931  1.0000
  H   H745      1.0  0.41426592177916627  0.5563998467383205  0.4145554987022894  1.0000
  H   H746      1.0  0.41757764761660143  0.5794947079987847  0.38943102981920263  1.0000
  H   H747      1.0  0.4175594321518099  0.5662363245248546  0.24591952787107815  1.0000
  H   H748      1.0  0.41438800088643274  0.5419022563553022  0.2728625163142257  1.0000
  H   H749      1.0  0.40523980627817524  0.5903100554647814  0.2215640531120325  1.0000
  H   H750      1.0  0.38210218802553336  0.601176689564074  0.2120471340810481  1.0000
  H   H751      1.0  0.38431230503523917  0.6165612780933966  0.35260248446525994  1.0000
  H   H752      1.0  0.4069835078640342  0.6051945446782072  0.3628122735456783  1.0000
  H   H753      1.0  0.42665447958489433  0.6190880831830733  0.30082613123914376  1.0000
  H   H754      1.0  0.4428092556599136  0.6334856348665137  0.34414848306860557  1.0000
  H   H755      1.0  0.461086102780777  0.5968999198576785  0.40506818347809675  1.0000
  H   H756      1.0  0.44442983562014243  0.58246156356587  0.3653004030212652  1.0000
  C   C1189     1.0  0.49585751536012973  0.5881987275655136  0.668792286576746  1.0000
  C   C1190     1.0  0.48835816205050864  0.6006064096505511  0.6696663037296434  1.0000
  C   C1191     1.0  0.47505234938511964  0.6010386298875122  0.6504661204676071  1.0000
  C   C1192     1.0  0.47005181557306847  0.5897315958503481  0.6247812938131062  1.0000
  C   C1193     1.0  0.4768434698578399  0.577176951979694  0.6300253967304905  1.0000
  C   C1194     1.0  0.4899387279155812  0.5764720414308492  0.6492960652467928  1.0000
  H   H757      1.0  0.49194496409202243  0.6106953991790605  0.6815465933361641  1.0000
  H   H758      1.0  0.46984894669923744  0.6111599420413557  0.6520344173750238  1.0000
  H   H759      1.0  0.47248054933114625  0.5675068077273598  0.6159424429281599  1.0000
  H   H760      1.0  0.4953819678963683  0.5664635957762648  0.6464484609744497  1.0000
  C   C1195     1.0  0.466075298756748  0.5766395771942853  0.522105423923942  1.0000
  C   C1196     1.0  0.45457899249281086  0.5803618464142513  0.5504334476134148  1.0000
  C   C1197     1.0  0.44143727513197595  0.5754869348238574  0.5353531274632214  1.0000
  C   C1198     1.0  0.44007090593620696  0.5665193121695571  0.4978620207191791  1.0000
  C   C1199     1.0  0.45178192312523247  0.5623304369630544  0.4732450456668069  1.0000
  C   C1200     1.0  0.4647556608854897  0.5674142798003121  0.4857068386210214  1.0000
  C   C1201     1.0  0.45618970892842325  0.591178214119492  0.5929818713510369  1.0000
  C   C1202     1.0  0.45558423817300864  0.6056839135646649  0.5621621939232637  1.0000
  C   C1203     1.0  0.44284517977754934  0.6101854432008386  0.5416968003471542  1.0000
  C   C1204     1.0  0.44298933789651707  0.6189430401899897  0.5039413738996147  1.0000
  C   C1205     1.0  0.45547577429666797  0.6245666862920324  0.48932625642757627  1.0000
  C   C1206     1.0  0.46791153310408545  0.6211919947348484  0.5107890163515486  1.0000
  C   C1207     1.0  0.46809383132364657  0.6121707936567313  0.5475224066122324  1.0000
  C   C1208     1.0  0.4400760158314045  0.5768358841667831  0.6489119206110436  1.0000
  C   C1209     1.0  0.4292072433568444  0.5758466921523779  0.6810426237681628  1.0000
  C   C1210     1.0  0.4226804098263236  0.5876648136995156  0.697860405436011  1.0000
  C   C1211     1.0  0.4287723405791147  0.6006903572181392  0.6859695430413506  1.0000
  C   C1212     1.0  0.439300166218494  0.601583142052031  0.654120780901295  1.0000
  C   C1213     1.0  0.44443461937859124  0.5899628692344306  0.632851855426554  1.0000
  C   C1214     1.0  0.4093057152163482  0.5872149098226797  0.7304704083221385  1.0000
  C   C1215     1.0  0.37985847687071245  0.551677708616921  0.7221989637340329  1.0000
  C   C1216     1.0  0.38212115703497596  0.5589441510456088  0.7633306338609099  1.0000
  C   C1217     1.0  0.3913158073367814  0.5697544810325342  0.7645676500732769  1.0000
  C   C1218     1.0  0.3990173982121642  0.5740611002604881  0.7252404024556072  1.0000
  C   C1219     1.0  0.3967796913366575  0.56661292133288  0.6832523364893993  1.0000
  C   C1220     1.0  0.3875566147795269  0.5553883205261974  0.6821492422601376  1.0000
  C   C1221     1.0  0.39816277358208446  0.5993313281457027  0.7194077476651025  1.0000
  C   C1222     1.0  0.3955496452145718  0.6036545469109984  0.6730390231462676  1.0000
  C   C1223     1.0  0.3870792457868756  0.6148588599990173  0.6633191065829974  1.0000
  C   C1224     1.0  0.38028429758235516  0.6216934661414596  0.6989282570381398  1.0000
  C   C1225     1.0  0.38182742325507074  0.6171350502476376  0.7445427893363292  1.0000
  C   C1226     1.0  0.3904744886416636  0.6062027826456393  0.7554398096458403  1.0000
  C   C1227     1.0  0.42060521063143425  0.6013586079906336  0.7996375883332848  1.0000
  C   C1228     1.0  0.4269116493610477  0.6024529633953035  0.8428380006728665  1.0000
  C   C1229     1.0  0.43051782368360103  0.5907205797351117  0.8672822868522873  1.0000
  C   C1230     1.0  0.4284237224019767  0.5776602813335737  0.8463516905980226  1.0000
  C   C1231     1.0  0.4219902681634907  0.5768028418917348  0.802735415258272  1.0000
  C   C1232     1.0  0.4172639299729409  0.5885965364005463  0.7797572223675823  1.0000
  H   H761      1.0  0.4766686789693984  0.5803261502880789  0.5308984593936154  1.0000
  H   H762      1.0  0.4315152743961746  0.5780854496072081  0.5527735580550432  1.0000
  H   H763      1.0  0.42984941613747985  0.561810393533565  0.490083972910935  1.0000
  H   H764      1.0  0.47421436993279703  0.564304167103058  0.46910051271597086  1.0000
  H   H765      1.0  0.4329440562187026  0.6057404361492277  0.5520828025632374  1.0000
  H   H766      1.0  0.43299494263472804  0.6215646572007856  0.4890584124613658  1.0000
  H   H767      1.0  0.4777301217270963  0.6254212268944366  0.49808404927011674  1.0000
  H   H768      1.0  0.4783126780822833  0.6084606466511774  0.5598608503714815  1.0000
  H   H769      1.0  0.44525884316158676  0.5676785556586157  0.6345364530035094  1.0000
  H   H770      1.0  0.42621770923566105  0.565654434340141  0.6935995718156363  1.0000
  H   H771      1.0  0.42547827263151833  0.6106388152249185  0.7011520668102295  1.0000
  H   H772      1.0  0.44325441669976845  0.6117417017106364  0.6443902915498849  1.0000
  H   H773      1.0  0.3757798998446617  0.5563022801335821  0.7934031675934642  1.0000
  H   H774      1.0  0.39236767503063064  0.5744790368118815  0.7979565150190426  1.0000
  H   H775      1.0  0.40233380284905157  0.5699877792724016  0.6525877266210113  1.0000
  H   H776      1.0  0.38546007700073204  0.5500365838781759  0.6489436389754631  1.0000
  H   H777      1.0  0.40069399300042036  0.5980577851524608  0.6443585731854652  1.0000
  H   H778      1.0  0.3857634189772194  0.6182959085713895  0.6271214042547347  1.0000
  H   H779      1.0  0.3767063989250155  0.6227504695652978  0.7725360080680389  1.0000
  H   H780      1.0  0.3919045655915093  0.6033394120789434  0.7914260562113051  1.0000
  H   H781      1.0  0.4186535937075645  0.6110077642830389  0.7813043736987193  1.0000
  H   H782      1.0  0.42919997486258604  0.6129752967879549  0.8551799686948289  1.0000
  H   H783      1.0  0.43055360340353754  0.5680248280433443  0.8648928367326726  1.0000
  H   H784      1.0  0.4193990986009964  0.5666453578983205  0.7898789048801683  1.0000
  C   C1233     1.0  0.5769966353639143  0.42639659782919986  0.5834346436607181  1.0000
  C   C1234     1.0  0.5675433412330969  0.42625668723109467  0.546553234366076  1.0000
  C   C1235     1.0  0.5674907536077729  0.4367928650540267  0.5142005026580191  1.0000
  C   C1236     1.0  0.5768410758605799  0.44796684610390536  0.517700095532322  1.0000
  C   C1237     1.0  0.5865618771817885  0.44750791887296654  0.5548352517423214  1.0000
  C   C1238     1.0  0.5868324953596389  0.43681102243552355  0.5864549368060127  1.0000
  H   H785      1.0  0.5603145106398708  0.4178736776066849  0.542613108652611  1.0000
  H   H786      1.0  0.5599822006988154  0.436493081829591  0.48567512025660176  1.0000
  H   H787      1.0  0.594307286518946  0.4557966088372661  0.5590256001084303  1.0000
  H   H788      1.0  0.5943293003914363  0.43745668931045606  0.6142014571477918  1.0000
  C   C1239     1.0  0.5774176729298836  0.4795800762276715  0.5452527814248698  1.0000
  C   C1240     1.0  0.5809213405039271  0.4756624812036715  0.5000188694997163  1.0000
  C   C1241     1.0  0.5875835075336197  0.4855843663486791  0.4720186022425799  1.0000
  C   C1242     1.0  0.5912284989396774  0.49863395653675585  0.48903374262237276  1.0000
  C   C1243     1.0  0.5885510537424138  0.5018701773454995  0.5355293405988862  1.0000
  C   C1244     1.0  0.5818507467968891  0.4923354469424266  0.5638749856019256  1.0000
  C   C1245     1.0  0.5765920487529962  0.46038842530449914  0.48051912390704976  1.0000
  C   C1246     1.0  0.5616650149553886  0.46464820989018013  0.4585136275252298  1.0000
  C   C1247     1.0  0.5612440419984606  0.47102926817963325  0.4150876623719971  1.0000
  C   C1248     1.0  0.5488919946238535  0.47503981942269585  0.39432975499068396  1.0000
  C   C1249     1.0  0.5363468973632035  0.4725968837150734  0.4168286481523653  1.0000
  C   C1250     1.0  0.5365418777105829  0.4665874533183154  0.4612378826026076  1.0000
  C   C1251     1.0  0.5491129845284319  0.46285889890855864  0.4815129659921992  1.0000
  C   C1252     1.0  0.6019854174124579  0.4571649571231291  0.4474897337580401  1.0000
  C   C1253     1.0  0.6107847278952647  0.455672713919661  0.40966734631894797  1.0000
  C   C1254     1.0  0.6059695958097914  0.45058019146016554  0.3671682622593121  1.0000
  C   C1255     1.0  0.5923918912736231  0.44536836760368725  0.3676123193611873  1.0000
  C   C1256     1.0  0.583672701458294  0.4459691205271716  0.40565673535121716  1.0000
  C   C1257     1.0  0.5876390636705048  0.4541021238945191  0.44408177171428287  1.0000
  C   C1258     1.0  0.6144510051899811  0.4546976976042901  0.32040164848014613  1.0000
  C   C1259     1.0  0.6071172642629765  0.5005292176478009  0.3268136920607168  1.0000
  C   C1260     1.0  0.6201112557064632  0.49501447373929014  0.3376250727862947  1.0000
  C   C1261     1.0  0.6226697908341832  0.48100522344808166  0.3338121729567799  1.0000
  C   C1262     1.0  0.6122947200928842  0.4717704337611766  0.31992199632486656  1.0000
  C   C1263     1.0  0.5989352237031504  0.4772562276754065  0.31364316987485846  1.0000
  C   C1264     1.0  0.5963431298075876  0.4914001192411556  0.31863705013959887  1.0000
  C   C1265     1.0  0.608038450511565  0.44621881931080526  0.2763053685588445  1.0000
  C   C1266     1.0  0.607625856425597  0.4315848729829477  0.2771092528837473  1.0000
  C   C1267     1.0  0.600256510801735  0.4243719716062068  0.24260072967396737  1.0000
  C   C1268     1.0  0.5932740048385061  0.43116260384691396  0.2072086738019641  1.0000
  C   C1269     1.0  0.5940129000200818  0.4454552375563637  0.20510433653585508  1.0000
  C   C1270     1.0  0.6016742224282973  0.45295288534846617  0.23790394475595786  1.0000
  C   C1271     1.0  0.6392684779757053  0.4549117933381465  0.285150915542946  1.0000
  C   C1272     1.0  0.6532576107739418  0.45165518120445436  0.2825672785478288  1.0000
  C   C1273     1.0  0.6586855907088419  0.44207822278886044  0.31331118432726596  1.0000
  C   C1274     1.0  0.6502263318495338  0.43602006472529564  0.34652771282635164  1.0000
  C   C1275     1.0  0.6359894079944771  0.4396979538006391  0.34793953246929804  1.0000
  C   C1276     1.0  0.6304655836423205  0.44937696966321883  0.3181665610673738  1.0000
  H   H789      1.0  0.5712617664577406  0.4729183444632407  0.5673393358490955  1.0000
  H   H790      1.0  0.5901589623708599  0.4829345601033348  0.4354896192192674  1.0000
  H   H791      1.0  0.595307976810769  0.506699552586885  0.46506875617196025  1.0000
  H   H792      1.0  0.5783501745520939  0.49526971298678807  0.5978101112682523  1.0000
  H   H793      1.0  0.5706694624078907  0.4733202600606119  0.39627867227113667  1.0000
  H   H794      1.0  0.5491021198468046  0.48029157921867843  0.36174089768083634  1.0000
  H   H795      1.0  0.5269030485849928  0.465053899541527  0.48046273570363696  1.0000
  H   H796      1.0  0.5484991754396367  0.4587102292437764  0.5162621963452972  1.0000
  H   H797      1.0  0.6063336788422897  0.4619245898298384  0.47907065193188514  1.0000
  H   H798      1.0  0.6216879147705899  0.4589492104601389  0.4121131846419753  1.0000
  H   H799      1.0  0.5870560428079065  0.4422165457138013  0.33557500916597055  1.0000
  H   H800      1.0  0.5731979781659791  0.44186263965263944  0.40226287035831315  1.0000
  H   H801      1.0  0.6288734934916853  0.501756450489132  0.34631801919491056  1.0000
  H   H802      1.0  0.6332105635246742  0.4769045819924916  0.34520928614530766  1.0000
  H   H803      1.0  0.5901105935886715  0.4708992716903648  0.30518388208413416  1.0000
  H   H804      1.0  0.5853051337571378  0.49470025123253275  0.3130954994492123  1.0000
  H   H805      1.0  0.6128374282949514  0.4257502774392857  0.3043042261108956  1.0000
  H   H806      1.0  0.599916610861994  0.41283462788663594  0.24420603133987367  1.0000
  H   H807      1.0  0.5884058320399214  0.4513816302110984  0.1795862075076931  1.0000
  H   H808      1.0  0.6019391144284693  0.4642750770861712  0.23266442338010077  1.0000
  H   H809      1.0  0.634940298556072  0.4619712023945847  0.26027490718114654  1.0000
  H   H810      1.0  0.6599348235582919  0.45648959786328736  0.2568190151644885  1.0000
  H   H811      1.0  0.6542099920491772  0.429213037160741  0.3733991587364193  1.0000
  H   H812      1.0  0.6294214477707414  0.4341792513984243  0.37243703501568953  1.0000
  C   C1277     1.0  0.5826120619545452  0.4328097217889042  0.08198739048330302  1.0000
  C   C1278     1.0  0.5714562119442784  0.4281710941042805  0.05482413562057447  1.0000
  C   C1279     1.0  0.5647185605174737  0.4370297377984282  0.024634490638057296  1.0000
  C   C1280     1.0  0.5681582023819899  0.451110433376738  0.02234181677254975  1.0000
  C   C1281     1.0  0.5795929585580171  0.45543817680000204  0.04823658375688168  1.0000
  C   C1282     1.0  0.5869453370017046  0.44641954523362326  0.07671086434895631  1.0000
  H   H813      1.0  0.5677784736704289  0.417263027448754  0.05624124165759078  1.0000
  H   H814      1.0  0.5564745371777142  0.43316151487667454  0.0030016439413143026  1.0000
  H   H815      1.0  0.583570220046405  0.46620581984955706  0.04397786469413485  1.0000
  H   H816      1.0  0.5954506896974646  0.45044618402412356  0.09914702563434101  1.0000
  C   C1283     1.0  0.5582821579456523  0.4805939444044164  0.05171644075999011  1.0000
  C   C1284     1.0  0.5607478682312333  0.47765718619928943  0.004312669670660352  1.0000
  C   C1285     1.0  0.5614962735475801  0.4889104282091943  0.9740216316498818  1.0000
  C   C1286     1.0  0.5615211773930063  0.502317574601692  0.9906737729702051  1.0000
  C   C1287     1.0  0.5610593531278927  0.5047371453512124  0.03782626412807677  1.0000
  C   C1288     1.0  0.5591926180613386  0.4937995788990172  0.0679865520021922  1.0000
  C   C1289     1.0  0.5604655826086922  0.46160273070238406  0.9879882847826735  1.0000
  C   C1290     1.0  0.5437894112964631  0.4598240733919202  0.9823494644414  1.0000
  C   C1291     1.0  0.53657625867088  0.4667488895309464  0.9467262169354046  1.0000
  C   C1292     1.0  0.5221996882255189  0.4674764129179041  0.9454574823586182  1.0000
  C   C1293     1.0  0.5142172246005097  0.46148784375951624  0.9797908497115473  1.0000
  C   C1294     1.0  0.5208615913653398  0.4552027210372914  0.017537154172886246  1.0000
  C   C1295     1.0  0.5353964402200948  0.4544971871557452  0.018690645358948012  1.0000
  C   C1296     1.0  0.5824180197839156  0.4653134278620951  0.9352476932781998  1.0000
  C   C1297     1.0  0.5899563010929607  0.4638789583541974  0.8944473038463725  1.0000
  C   C1298     1.0  0.5841067865696206  0.4573149092560664  0.8554196185593331  1.0000
  C   C1299     1.0  0.5706518635526096  0.45119434153540705  0.8611077785785929  1.0000
  C   C1300     1.0  0.5641264578426819  0.45149857752909744  0.9033813098245776  1.0000
  C   C1301     1.0  0.569285368975611  0.45898302943746544  0.940777261475361  1.0000
  C   C1302     1.0  0.5920242540866278  0.4579124365976828  0.8057803782425597  1.0000
  C   C1303     1.0  0.5903588475871288  0.5033507417899873  0.8028517159278107  1.0000
  C   C1304     1.0  0.6032856504454215  0.4967606666240606  0.8065310462004918  1.0000
  C   C1305     1.0  0.6038389273305989  0.4827202232641795  0.8035636169958964  1.0000
  C   C1306     1.0  0.5919958992389808  0.47438999739365967  0.7974313998747615  1.0000
  C   C1307     1.0  0.5789964067397592  0.48139391876253673  0.7923071218896293  1.0000
  C   C1308     1.0  0.5781662301400229  0.495615614649494  0.7946366595431178  1.0000
  C   C1309     1.0  0.5846017923905593  0.448549806699548  0.766368548319771  1.0000
  C   C1310     1.0  0.5828156451854777  0.4341078610380379  0.7738117911702521  1.0000
  C   C1311     1.0  0.5767603342022416  0.42596378103947524  0.7400493543768768  1.0000
  C   C1312     1.0  0.5720307585731812  0.4316167384612463  0.699347644301022  1.0000
  C   C1313     1.0  0.5738716549280208  0.4455561256326066  0.6914814899249454  1.0000
  C   C1314     1.0  0.5806827319862595  0.4538622641208995  0.7236368629210577  1.0000
  C   C1315     1.0  0.6164791895998167  0.45291962570682043  0.769963296287333  1.0000
  C   C1316     1.0  0.6296425800559143  0.44723815181414434  0.7711967882369865  1.0000
  C   C1317     1.0  0.6335529024377602  0.43842034994522006  0.8076623345314597  1.0000
  C   C1318     1.0  0.624758076627381  0.4364383048613764  0.844427443156563  1.0000
  C   C1319     1.0  0.6113011980071404  0.4424956056578574  0.844187793292059  1.0000
  C   C1320     1.0  0.6073122627480597  0.4515453917615267  0.8082720319808598  1.0000
  H   H817      1.0  0.5562311895553883  0.47268194841476563  0.07710522934657413  1.0000
  H   H818      1.0  0.562884433957988  0.486791966284077  0.9361146619056705  1.0000
  H   H819      1.0  0.5626759378253692  0.510820155361432  0.9654576732565726  1.0000
  H   H820      1.0  0.5586744579256475  0.495847783921801  0.10595272935998681  1.0000
  H   H821      1.0  0.542188787277303  0.4717399021804154  0.9186977555765619  1.0000
  H   H822      1.0  0.5175543645222349  0.47315406937785187  0.916244868728108  1.0000
  H   H823      1.0  0.5150457343414505  0.45076243665868654  0.045743167887224795  1.0000
  H   H824      1.0  0.5394312290537636  0.44985959226268735  0.04977104774225074  1.0000
  H   H825      1.0  0.5867974324223888  0.4706608444165976  0.9648303544936059  1.0000
  H   H826      1.0  0.6003126997561179  0.4690033356943468  0.8928049974219766  1.0000
  H   H827      1.0  0.5649655757641076  0.44587871376869376  0.832518959448336  1.0000
  H   H828      1.0  0.5540692488264092  0.4466446705730372  0.9045760348843851  1.0000
  H   H829      1.0  0.6128497375618175  0.5025870813434383  0.8123707495164231  1.0000
  H   H830      1.0  0.6141889602816362  0.4783855910311444  0.8082156437774471  1.0000
  H   H831      1.0  0.5693335037004528  0.47549996163118813  0.7916692303385227  1.0000
  H   H832      1.0  0.568063199991838  0.5011096248188209  0.7942948060599282  1.0000
  H   H833      1.0  0.5860146642925042  0.4294133758596945  0.8073592479381162  1.0000
  H   H834      1.0  0.5746870290009487  0.41484927347273276  0.7452969815569745  1.0000
  H   H835      1.0  0.5695507528924065  0.45053154057392025  0.6606336183954659  1.0000
  H   H836      1.0  0.5813343507066103  0.4649362481519398  0.7163345905791084  1.0000
  H   H837      1.0  0.6136576409096  0.45951500285423236  0.7405533239448783  1.0000
  H   H838      1.0  0.6365245293626022  0.4484011833987399  0.7414484866740554  1.0000
  H   H839      1.0  0.6266725114661527  0.42887003774612875  0.8720999539813629  1.0000
  H   H840      1.0  0.6040925555903054  0.43914283609740973  0.8718039159134461  1.0000
  C   C1321     1.0  0.49975912758289504  0.4667158085091879  0.3588087111033741  1.0000
  C   C1322     1.0  0.49158365589402486  0.4571565093713397  0.38254462047742227  1.0000
  C   C1323     1.0  0.4777259316656416  0.4601841448585228  0.3938645523125289  1.0000
  C   C1324     1.0  0.47224474688706103  0.47307438869357077  0.3819983597568614  1.0000
  C   C1325     1.0  0.479514211281947  0.4808577566139808  0.3480864942244425  1.0000
  C   C1326     1.0  0.49343500667649776  0.4782839693154342  0.33900446921227884  1.0000
  H   H841      1.0  0.4963045623039179  0.44808565918885107  0.39876327748401025  1.0000
  H   H842      1.0  0.4715886598490437  0.45341888393521707  0.4169132304574844  1.0000
  H   H843      1.0  0.47486550895504714  0.49026204965249137  0.3347781733664943  1.0000
  H   H844      1.0  0.4996643754114333  0.48583420718655435  0.3204361862547364  1.0000
  C   C1327     1.0  0.46818682877689577  0.503985919841934  0.4225450022733313  1.0000
  C   C1328     1.0  0.4569477302690059  0.4955556080094677  0.40857482487782615  1.0000
  C   C1329     1.0  0.44377674258582034  0.5016233167304455  0.40808495236067804  1.0000
  C   C1330     1.0  0.44166631581766985  0.514846046784136  0.42532212129140856  1.0000
  C   C1331     1.0  0.4529673595677949  0.522757461800668  0.4402403253567903  1.0000
  C   C1332     1.0  0.46631979325194794  0.5177566395003628  0.4347424755240486  1.0000
  C   C1333     1.0  0.45828574016878265  0.4788836563407453  0.406143083605652  1.0000
  C   C1334     1.0  0.4581019128942443  0.4755474188149872  0.46213304533178473  1.0000
  C   C1335     1.0  0.44553228137388917  0.47440153123605816  0.4865209433077927  1.0000
  C   C1336     1.0  0.4451232598122137  0.47355262016260574  0.5340068591067424  1.0000
  C   C1337     1.0  0.4575332763775511  0.47326923043239505  0.5593357352272004  1.0000
  C   C1338     1.0  0.4703671604194887  0.47471873084518634  0.5364350761162033  1.0000
  C   C1339     1.0  0.47054191395372663  0.4759609644820113  0.4889068691646941  1.0000
  C   C1340     1.0  0.4433459087919016  0.4770113072752718  0.32820718553755396  1.0000
  C   C1341     1.0  0.4315715207865419  0.4723613616583767  0.3049615011069252  1.0000
  C   C1342     1.0  0.4213745354193201  0.46428284337779935  0.32789070674590004  1.0000
  C   C1343     1.0  0.4254593304564694  0.45858226781190103  0.37054098167593624  1.0000
  C   C1344     1.0  0.4382097728733115  0.4610167495879783  0.3899490964380571  1.0000
  C   C1345     1.0  0.44634854996957857  0.4718853447851788  0.37353308071952457  1.0000
  C   C1346     1.0  0.405443483970408  0.4643715794410465  0.3104008481786262  1.0000
  C   C1347     1.0  0.39990736767723883  0.5091869572039459  0.3402192825695519  1.0000
  C   C1348     1.0  0.40204886146115026  0.5046158364170554  0.29479047891635307  1.0000
  C   C1349     1.0  0.4025662350662182  0.4906399487199244  0.2838765421458182  1.0000
  C   C1350     1.0  0.40162718031134825  0.4806314401037635  0.31969679593748696  1.0000
  C   C1351     1.0  0.3997151636523016  0.4854595949136588  0.3652933544958386  1.0000
  C   C1352     1.0  0.3986451880630137  0.49942041932626063  0.37503794089810194  1.0000
  C   C1353     1.0  0.395978736941207  0.45301747021619404  0.3369188105385502  1.0000
  C   C1354     1.0  0.4006512762091127  0.4393581395391353  0.3383112467365735  1.0000
  C   C1355     1.0  0.392600599708365  0.42883649421436454  0.35724041419595737  1.0000
  C   C1356     1.0  0.37932088236875733  0.43166341735979613  0.37388550699085416  1.0000
  C   C1357     1.0  0.37422290589993523  0.44515905977007225  0.37230663729529756  1.0000
  C   C1358     1.0  0.3824431487542891  0.4556413128433264  0.35481572144920975  1.0000
  C   C1359     1.0  0.3900843409620952  0.4615861045269647  0.23713354092683137  1.0000
  C   C1360     1.0  0.3865851932937889  0.45589248321868175  0.19438423421455148  1.0000
  C   C1361     1.0  0.3963115168884892  0.44791634498489996  0.170702598486288  1.0000
  C   C1362     1.0  0.409583573418965  0.4465227977554966  0.18824285401036195  1.0000
  C   C1363     1.0  0.4130754943670623  0.4523046880145066  0.23149119632284454  1.0000
  C   C1364     1.0  0.403316311546817  0.4598439591073096  0.25678694437379757  1.0000
  H   H845      1.0  0.47857172368590367  0.4996120332683964  0.42582256659669654  1.0000
  H   H846      1.0  0.4341766521775652  0.49566421710512615  0.4006276124593438  1.0000
  H   H847      1.0  0.4308179258449613  0.5185114067173141  0.430150361208624  1.0000
  H   H848      1.0  0.4750987056874745  0.5236815616554265  0.4467848812153809  1.0000
  H   H849      1.0  0.43553869526979033  0.47542130141443983  0.4678388266646109  1.0000
  H   H850      1.0  0.43503320658411887  0.47292166192254  0.551673988088495  1.0000
  H   H851      1.0  0.4795656594334299  0.47524918098966396  0.5582044468962324  1.0000
  H   H852      1.0  0.48053908299337694  0.47841971828574165  0.4731463663108346  1.0000
  H   H853      1.0  0.4501876706966784  0.48493466926730505  0.31200333043436185  1.0000
  H   H854      1.0  0.428597549211529  0.47723322634881554  0.27177210943073193  1.0000
  H   H855      1.0  0.4182570182855285  0.4522102517443936  0.39006892137030913  1.0000
  H   H856      1.0  0.44100652710680394  0.45609739987036546  0.4222595369935544  1.0000
  H   H857      1.0  0.40308689932189845  0.5122637634079948  0.26694422193978784  1.0000
  H   H858      1.0  0.404783254558673  0.4876462619918466  0.24783425980321186  1.0000
  H   H859      1.0  0.40060713290235833  0.47815453923097534  0.39277555513412044  1.0000
  H   H860      1.0  0.3970096728969168  0.5029983576078949  0.41112991534496574  1.0000
  H   H861      1.0  0.4107076046033429  0.43617219669578333  0.32398758579092474  1.0000
  H   H862      1.0  0.3969218368319755  0.4186540253961584  0.3579205968996235  1.0000
  H   H863      1.0  0.36344449695168873  0.4474404776955501  0.38223096109593896  1.0000
  H   H864      1.0  0.37845881608551707  0.46643518798783024  0.35382540362677356  1.0000
  H   H865      1.0  0.38204992476818816  0.4671924674874588  0.25659592933473696  1.0000
  H   H866      1.0  0.3762117841034908  0.45705203799853145  0.17980929333744472  1.0000
  H   H867      1.0  0.41762240818775437  0.44025029839091445  0.1717503617909509  1.0000
  H   H868      1.0  0.4232763624896559  0.4504582018946792  0.24636252769413947  1.0000
  C   C1365     1.0  0.4744773565018567  0.4605015555334106  0.9366855924652244  1.0000
  C   C1366     1.0  0.46498588741388813  0.4496714004700407  0.9390080815932865  1.0000
  C   C1367     1.0  0.45079679982733467  0.452453396571462  0.946479518545474  1.0000
  C   C1368     1.0  0.44572153138673554  0.4659494808096383  0.9495033359534818  1.0000
  C   C1369     1.0  0.455324015774071  0.47664889115187087  0.9418380645520631  1.0000
  C   C1370     1.0  0.46960279238452945  0.47396292678565466  0.9361640015836566  1.0000
  H   H869      1.0  0.46860305686476506  0.4387774886245369  0.9387895773050621  1.0000
  H   H870      1.0  0.44369525913691077  0.44390555063223086  0.9517623883527045  1.0000
  H   H871      1.0  0.45252462108617625  0.48771820844850405  0.9427966640100797  1.0000
  H   H872      1.0  0.4768176655885682  0.48249667952809033  0.9359454972954323  1.0000
  C   C1371     1.0  0.4399808534134007  0.4840129265369778  0.037462207789793305  1.0000
  C   C1372     1.0  0.42961660251133443  0.4826024065228669  0.0033012062719444124  1.0000
  C   C1373     1.0  0.4189049940106796  0.4925565480214474  0.003646584017847454  1.0000
  C   C1374     1.0  0.4196097140120602  0.5042493435577289  0.03114905502095773  1.0000
  C   C1375     1.0  0.43073326509018917  0.5060777728127956  0.06092040526203381  1.0000
  C   C1376     1.0  0.44047074330826347  0.4956848864253658  0.06610706269719145  1.0000
  C   C1377     1.0  0.4299763648390769  0.4698691294471603  0.9654541489938593  1.0000
  C   C1378     1.0  0.4220366449637377  0.4581541845532809  0.9951636836669442  1.0000
  C   C1379     1.0  0.4075020451320043  0.45668486853199924  0.992506389581119  1.0000
  C   C1380     1.0  0.4004169685715928  0.4479943641754718  0.022968219227210974  1.0000
  C   C1381     1.0  0.40747906630232167  0.44145475888575336  0.05941202082074314  1.0000
  C   C1382     1.0  0.4217955787021487  0.44309869890157083  0.06363514483008569  1.0000
  C   C1383     1.0  0.4289295322949545  0.4512258563640809  0.03219431609909418  1.0000
  C   C1384     1.0  0.4225365829444178  0.48680932960431866  0.8958076692537047  1.0000
  C   C1385     1.0  0.41726535376374513  0.4889556243907151  0.8512468915067907  1.0000
  C   C1386     1.0  0.4127792772831899  0.4778881302255603  0.8235320895294314  1.0000
  C   C1387     1.0  0.4145767008647033  0.4646509346176852  0.8425948265456492  1.0000
  C   C1388     1.0  0.4188487594712789  0.4623999487728587  0.8877688260046767  1.0000
  C   C1389     1.0  0.4230636977703742  0.47344228653897485  0.9155364919227355  1.0000
  C   C1390     1.0  0.40623748975010887  0.48075784280723677  0.7715033990930432  1.0000
  C   C1391     1.0  0.3793257294896501  0.5185626440764096  0.7632284302422244  1.0000
  C   C1392     1.0  0.3874697594081447  0.5147302187476889  0.7251170532606419  1.0000
  C   C1393     1.0  0.3963257415214957  0.5034406469318344  0.7274395423887039  1.0000
  C   C1394     1.0  0.39723951757449294  0.4952228403151852  0.7672249441591019  1.0000
  C   C1395     1.0  0.3894141990184525  0.4995913991012885  0.8057909510306995  1.0000
  C   C1396     1.0  0.3803514119378831  0.5108431581297376  0.8033063458178259  1.0000
  C   C1397     1.0  0.395255751683206  0.4680406080871605  0.7605182722156997  1.0000
  C   C1398     1.0  0.40039761711291766  0.4556744237040347  0.7420370385471757  1.0000
  C   C1399     1.0  0.3917248871313958  0.4444801037494524  0.7340334379252806  1.0000
  C   C1400     1.0  0.37759630951282247  0.44493893872378487  0.7451912536755757  1.0000
  C   C1401     1.0  0.37206735983696193  0.4572089521156561  0.7614451533092965  1.0000
  C   C1402     1.0  0.38086914959418305  0.46858489214196986  0.7699456749737664  1.0000
  C   C1403     1.0  0.4173596822762475  0.4786275963559477  0.6874955487962077  1.0000
  C   C1404     1.0  0.42774608957665194  0.4807936025217264  0.65521682660513  1.0000
  C   C1405     1.0  0.44083874924823974  0.48584549685861905  0.6694301781278527  1.0000
  C   C1406     1.0  0.44316851296794935  0.48918863321935935  0.7157037475534285  1.0000
  C   C1407     1.0  0.43249037756661235  0.48721040467376264  0.7480600035241985  1.0000
  C   C1408     1.0  0.41934202055066044  0.4818874556233983  0.735728608290376  1.0000
  H   H873      1.0  0.4481386217441477  0.4763309040253695  0.04099986270139978  1.0000
  H   H874      1.0  0.40990657149024695  0.49141647316434356  0.9812111275850055  1.0000
  H   H875      1.0  0.41207400697858443  0.5126515186775963  0.026254664692613713  1.0000
  H   H876      1.0  0.44911798504894807  0.4965025980654706  0.09069443394277199  1.0000
  H   H877      1.0  0.40125170557497514  0.462228448935298  0.9670964554182552  1.0000
  H   H878      1.0  0.38915789388798283  0.4462435775279879  0.019179918751434887  1.0000
  H   H879      1.0  0.42717074984054576  0.4382525718823532  0.09208933712469453  1.0000
  H   H880      1.0  0.4403669859044187  0.45306500707873965  0.03677532898697192  1.0000
  H   H881      1.0  0.4256501637377085  0.4960182961259197  0.9141690779899766  1.0000
  H   H882      1.0  0.4169653830670505  0.4991734448662608  0.8366529196110322  1.0000
  H   H883      1.0  0.41218468007981485  0.4550317593142734  0.8239550010550268  1.0000
  H   H884      1.0  0.4204236210301512  0.45145307309381094  0.8989019719159785  1.0000
  H   H885      1.0  0.3870489459335051  0.520801283289788  0.6928876707475504  1.0000
  H   H886      1.0  0.4020020368749511  0.5013469523525793  0.6947555299855973  1.0000
  H   H887      1.0  0.3884013415063824  0.4933668680475453  0.8370088701450751  1.0000
  H   H888      1.0  0.37331861106089087  0.512718435555255  0.8319903200413417  1.0000
  H   H889      1.0  0.4116334302405693  0.4542666900159174  0.7352070174088082  1.0000
  H   H890      1.0  0.39627451164987826  0.435108312919297  0.7181531101391692  1.0000
  H   H891      1.0  0.36087396775170655  0.45795362452129307  0.771024099364035  1.0000
  H   H892      1.0  0.3752820862317285  0.47791309255790143  0.7807792585544381  1.0000
  H   H893      1.0  0.4074977538866142  0.4749532321154056  0.6742971849349143  1.0000
  H   H894      1.0  0.4256008502189215  0.4787331392459043  0.6182649320562219  1.0000
  H   H895      1.0  0.4536693457230016  0.49267367669819284  0.7272985718801721  1.0000
  H   H896      1.0  0.43475609869193016  0.4901533073019367  0.7827528456738839  1.0000
  C   C1409     1.0  0.9781108759182923  0.09915122149980522  0.4195916701195893  1.0000
  C   C1410     1.0  0.96872192924779  0.10945027562796632  0.40806380678439824  1.0000
  C   C1411     1.0  0.9553058945638796  0.10542073710625949  0.3928671859646662  1.0000
  C   C1412     1.0  0.9514382622512758  0.09170705067102697  0.39127421921825634  1.0000
  C   C1413     1.0  0.9606150663194918  0.08158673621636385  0.40800741858098555  1.0000
  C   C1414     1.0  0.9741581186396912  0.08519827777807791  0.4196057671704425  1.0000
  H   H897      1.0  0.9715374603121767  0.12052561226899552  0.4049377857577048  1.0000
  H   H898      1.0  0.9479712152707437  0.11326218342879954  0.379587764060967  1.0000
  H   H899      1.0  0.9575080944922617  0.07070876911133701  0.40876513506434414  1.0000
  H   H900      1.0  0.9818821907470049  0.07723561950772061  0.4284763364198084  1.0000
  C   C1415     1.0  0.9464622359004975  0.06781277965536149  0.3197500123044577  1.0000
  C   C1416     1.0  0.9354549883315051  0.07269677705428994  0.3476621729937616  1.0000
  C   C1417     1.0  0.9231653296723282  0.06499030322875302  0.34986730417347095  1.0000
  C   C1418     1.0  0.9222569816323454  0.05201537565836893  0.32890780896495725  1.0000
  C   C1419     1.0  0.9333916946076339  0.047171372447534846  0.30335901885118954  1.0000
  C   C1420     1.0  0.9456330059763522  0.05484806530612784  0.29891069445446744  1.0000
  C   C1421     1.0  0.9361807734130602  0.08753919062949835  0.37162997885434473  1.0000
  C   C1422     1.0  0.9309849905215491  0.09608525165926983  0.3265077860572027  1.0000
  C   C1423     1.0  0.9169369380527423  0.09879661279492861  0.31570697811976456  1.0000
  C   C1424     1.0  0.9132782126656788  0.10690333354341564  0.27784088982302757  1.0000
  C   C1425     1.0  0.9235004758682863  0.11247719568727281  0.2487717136849486  1.0000
  C   C1426     1.0  0.9372753783927665  0.10923995832141388  0.2574308271715167  1.0000
  C   C1427     1.0  0.9409862371439068  0.10130429081340243  0.2949057223070779  1.0000
  C   C1428     1.0  0.9283123375152514  0.07793550246864768  0.45197612019206584  1.0000
  C   C1429     1.0  0.9201014925088528  0.07771641336197516  0.4918883954201425  1.0000
  C   C1430     1.0  0.9100465082740852  0.08824735739870955  0.4997263556945127  1.0000
  C   C1431     1.0  0.9100749372376453  0.09965694640794012  0.4689771635210055  1.0000
  C   C1432     1.0  0.9181531079109605  0.09952336220240561  0.42895916041153  1.0000
  C   C1433     1.0  0.9270949353973067  0.08828684161885193  0.4189044388904966  1.0000
  C   C1434     1.0  0.8993171696682415  0.08739806385239433  0.5427928460509892  1.0000
  C   C1435     1.0  0.8875587798758563  0.0440259670319958  0.5709411323420839  1.0000
  C   C1436     1.0  0.8897882750646067  0.0531249513799482  0.6082313561114685  1.0000
  C   C1437     1.0  0.8928293298338901  0.06697025341301652  0.5997202616588587  1.0000
  C   C1438     1.0  0.8949381850604782  0.07171377915065061  0.5543665248014531  1.0000
  C   C1439     1.0  0.8913559287298768  0.06281773348435303  0.5170058157778027  1.0000
  C   C1440     1.0  0.8876154814778928  0.048928645659931956  0.5253724154591672  1.0000
  C   C1441     1.0  0.884145903387257  0.09383224181483059  0.5351310989122838  1.0000
  C   C1442     1.0  0.8774688262140052  0.09342961653589074  0.49155359046237934  1.0000
  C   C1443     1.0  0.8644964170156813  0.09890011766612233  0.48501608312921535  1.0000
  C   C1444     1.0  0.8575834071515496  0.10448213288590291  0.5216014543559406  1.0000
  C   C1445     1.0  0.8632192132285361  0.10437931107382094  0.5658767668230776  1.0000
  C   C1446     1.0  0.8762879899955133  0.0990798497329268  0.5726292541817527  1.0000
  C   C1447     1.0  0.9075869211534624  0.11024147616047274  0.583970331593139  1.0000
  C   C1448     1.0  0.9154028389425961  0.11753976874652888  0.6165697616911266  1.0000
  C   C1449     1.0  0.9252045151965118  0.11077400805007281  0.6445524076346966  1.0000
  C   C1450     1.0  0.9268458089083189  0.09642086261199112  0.6392378194630463  1.0000
  C   C1451     1.0  0.9187942537727797  0.08898556850661073  0.6075617461959422  1.0000
  C   C1452     1.0  0.9089861947536932  0.09571229870848706  0.5792196254556161  1.0000
  H   H901      1.0  0.9561183613361158  0.0737495970423864  0.3157316479587577  1.0000
  H   H902      1.0  0.9142204436795613  0.06834884191235828  0.37050573904880335  1.0000
  H   H903      1.0  0.913106741830736  0.04515888070717292  0.33582558424488584  1.0000
  H   H904      1.0  0.9544902225654167  0.051487261424164  0.27937464895585395  1.0000
  H   H905      1.0  0.9086229016709136  0.09524821680760234  0.33909081364875454  1.0000
  H   H906      1.0  0.9023644435218592  0.109561867234751  0.270068833261396  1.0000
  H   H907      1.0  0.9459879577963112  0.11324075605396437  0.2357051572491325  1.0000
  H   H908      1.0  0.9520356729563232  0.09923705891769406  0.29988268611079444  1.0000
  H   H909      1.0  0.9352194108890987  0.06941583394819331  0.444511731765305  1.0000
  H   H910      1.0  0.9204084984187904  0.06861141954961349  0.5147397148531534  1.0000
  H   H911      1.0  0.9031004814134005  0.10815554062092021  0.47484858520135653  1.0000
  H   H912      1.0  0.917591510458776  0.10797667841167685  0.4051421929950759  1.0000
  H   H913      1.0  0.8895485740862941  0.0493457538470546  0.6444325827024444  1.0000
  H   H914      1.0  0.8940421982867893  0.07446786151654258  0.629482660272643  1.0000
  H   H915      1.0  0.8924586074336993  0.06623254088101546  0.48079401639868685  1.0000
  H   H916      1.0  0.885921536924609  0.04185329165165477  0.49615980182865715  1.0000
  H   H917      1.0  0.8825550266014712  0.08857856035713589  0.4610687179923694  1.0000
  H   H918      1.0  0.8602659872900111  0.0987243195593746  0.4500307271743265  1.0000
  H   H919      1.0  0.8570826989044456  0.10836639157076168  0.5947440027076848  1.0000
  H   H920      1.0  0.8806951888614114  0.0990908719991676  0.6079564636198312  1.0000
  H   H921      1.0  0.9001794005062526  0.11585829222522474  0.5612212157788137  1.0000
  H   H922      1.0  0.9139617902020047  0.1286054052471873  0.6191178036328396  1.0000
  H   H923      1.0  0.9341985086249951  0.09118448532890383  0.6603798714801086  1.0000
  H   H924      1.0  0.920974427254641  0.07809047326450548  0.6014224805493806  1.0000
  C   C1453     1.0  0.9834238990377083  0.08742093522981778  0.929489048004674  1.0000
  C   C1454     1.0  0.9750617536893705  0.0989357265515574  0.9204316928315035  1.0000
  C   C1455     1.0  0.9612800110504407  0.09727653639271035  0.9060421281731161  1.0000
  C   C1456     1.0  0.9553095840923405  0.08403220044324564  0.9014394410695517  1.0000
  C   C1457     1.0  0.9630034345858266  0.07301499244145285  0.9175805642964472  1.0000
  C   C1458     1.0  0.9768007147298253  0.07449111196701633  0.9305568996068028  1.0000
  H   H925      1.0  0.9795354167052523  0.10925091834623345  0.9195435786277529  1.0000
  H   H926      1.0  0.9549880845459451  0.10651049308852582  0.8979292754071089  1.0000
  H   H927      1.0  0.9588427036868653  0.06273691567686539  0.9125902082944201  1.0000
  H   H928      1.0  0.9824793721413143  0.06509319584227857  0.939265352771357  1.0000
  C   C1459     1.0  0.9497602928591253  0.062213786280133514  0.8220977146051198  1.0000
  C   C1460     1.0  0.9385934758059936  0.06734916263258872  0.8485860731582522  1.0000
  C   C1461     1.0  0.9260858128673749  0.05972388353432166  0.8495270513027023  1.0000
  C   C1462     1.0  0.9254169922631821  0.046780671558394174  0.82836385370936  1.0000
  C   C1463     1.0  0.9369453103183378  0.0413045002430277  0.8067072593361565  1.0000
  C   C1464     1.0  0.9491454179390849  0.04905598395022783  0.8045398377674795  1.0000
  C   C1465     1.0  0.9404009480838003  0.08171007040926245  0.8762480111949121  1.0000
  C   C1466     1.0  0.9381841662768917  0.09178946755332823  0.8322793095838319  1.0000
  C   C1467     1.0  0.924821363009197  0.09561172449395039  0.8198880018838833  1.0000
  C   C1468     1.0  0.9222351643032892  0.10507885301840064  0.784254181589748  1.0000
  C   C1469     1.0  0.9334905834552094  0.11068044030727386  0.7604724568004269  1.0000
  C   C1470     1.0  0.9469732139174798  0.10608074320654048  0.7693077834226599  1.0000
  C   C1471     1.0  0.9491168271112441  0.09629280919706057  0.8038067911231139  1.0000
  C   C1472     1.0  0.9293300914637599  0.07194549901992646  0.9547051477183067  1.0000
  C   C1473     1.0  0.9191900051809451  0.07231309214543538  0.9888940202999906  1.0000
  C   C1474     1.0  0.9102700990492553  0.08355779015071872  0.9914878776569764  1.0000
  C   C1475     1.0  0.9136170881629436  0.09577560511505388  0.9660779434941126  1.0000
  C   C1476     1.0  0.9239322661944135  0.09540811117199934  0.9318714495988623  1.0000
  C   C1477     1.0  0.9307564784790318  0.08302183707654265  0.9226096871883204  1.0000
  C   C1478     1.0  0.8960847156478503  0.0833763857913135  0.021396010388182517  1.0000
  C   C1479     1.0  0.885969546578634  0.0395958354474584  0.05112295491907106  1.0000
  C   C1480     1.0  0.8855039867585334  0.04943740413928766  0.0866873472377545  1.0000
  C   C1481     1.0  0.88769648115991  0.06344605211142962  0.07698188015160878  1.0000
  C   C1482     1.0  0.8906272140387194  0.06785497817998574  0.03194698334187507  1.0000
  C   C1483     1.0  0.8892924047750895  0.05824514056585257  0.9955584010908333  1.0000
  C   C1484     1.0  0.8874809279111235  0.04432902125348219  0.004989328111613345  1.0000
  C   C1485     1.0  0.882413948012778  0.08938632173239182  0.9935002316662686  1.0000
  C   C1486     1.0  0.8814219812544878  0.08916061698022254  0.9443297182903634  1.0000
  C   C1487     1.0  0.8701527604756198  0.09558482031927233  0.9220634264677595  1.0000
  C   C1488     1.0  0.8600540300393321  0.10270454790625488  0.9470821674694475  1.0000
  C   C1489     1.0  0.8607986766310455  0.10226887649295527  0.9961081860741074  1.0000
  C   C1490     1.0  0.8717881215981762  0.0954808553330062  0.017808628129691435  1.0000
  C   C1491     1.0  0.8986666049372233  0.10748216232732616  0.0668362326525724  1.0000
  C   C1492     1.0  0.9048004014221693  0.11583727978812511  0.10124466680129476  1.0000
  C   C1493     1.0  0.9145042556157545  0.11065744470627761  0.13244672673346045  1.0000
  C   C1494     1.0  0.9172836242767992  0.09644419512457997  0.13028741096902402  1.0000
  C   C1495     1.0  0.910981630902036  0.08793367571666935  0.09698806229617589  1.0000
  C   C1496     1.0  0.901785174829954  0.09303884995132587  0.06358263331565757  1.0000
  H   H929      1.0  0.9595680187078428  0.06811026079719154  0.8198210408923308  1.0000
  H   H930      1.0  0.9171032327516557  0.06442027413808882  0.867849693149128  1.0000
  H   H931      1.0  0.9154967452645497  0.0413665940428083  0.8284026205992064  1.0000
  H   H932      1.0  0.9585721637383835  0.044918098350236454  0.7877361531504844  1.0000
  H   H933      1.0  0.9152710078601514  0.091262779436868  0.836698735026305  1.0000
  H   H934      1.0  0.9117708373633819  0.10775901119955662  0.7758875819083834  1.0000
  H   H935      1.0  0.9560550309816694  0.11074898130299861  0.7518767800426981  1.0000
  H   H936      1.0  0.9600377610287378  0.09353510077777637  0.8114121500584065  1.0000
  H   H937      1.0  0.9356377998151802  0.06263537340025234  0.9517482913018513  1.0000
  H   H938      1.0  0.9177660439493763  0.06389843924034122  0.01350063987421273  1.0000
  H   H939      1.0  0.9076058107074672  0.10524121143460209  0.9720550930558627  1.0000
  H   H940      1.0  0.9251049263038796  0.10450407240926567  0.9102782919544979  1.0000
  H   H941      1.0  0.8846980465993232  0.046174296882265556  0.12299077744741609  1.0000
  H   H942      1.0  0.8873146737531469  0.07052761150356512  0.1062466528702757  1.0000
  H   H943      1.0  0.890530033162171  0.061141319419333255  0.9582082648553228  1.0000
  H   H944      1.0  0.8876814064230979  0.03726599730395473  0.9753079875402347  1.0000
  H   H945      1.0  0.889542397239809  0.08367404205995328  0.9222889792814104  1.0000
  H   H946      1.0  0.8703475970046695  0.09639169589225044  0.8840472045794361  1.0000
  H   H947      1.0  0.8525964867944856  0.107255283290945  0.017278579017611723  1.0000
  H   H948      1.0  0.8723966891332134  0.0954115798302571  0.05555013373951344  1.0000
  H   H949      1.0  0.8926116313169543  0.11307996598301426  0.04044020978252838  1.0000
  H   H950      1.0  0.9030284975395717  0.12694098364268053  0.10150229040563669  1.0000
  H   H951      1.0  0.9251311438483609  0.0922473368428644  0.1535651661903438  1.0000
  H   H952      1.0  0.9144139138580534  0.07728143213618334  0.09515791266916131  1.0000
  C   C1497     1.0  0.09072439260590313  0.11228061565298882  0.28952523042268896  1.0000
  C   C1498     1.0  0.08153287523296313  0.11829687716643805  0.32126227343473296  1.0000
  C   C1499     1.0  0.07299516834153598  0.11019658520262975  0.34821160555076447  1.0000
  C   C1500     1.0  0.07301515320648036  0.09548861380026508  0.3442411711779652  1.0000
  C   C1501     1.0  0.08294317973904315  0.08986521081101129  0.3136199097409507  1.0000
  C   C1502     1.0  0.09176584670801705  0.09799032969292479  0.28754353749900263  1.0000
  H   H953      1.0  0.08111676307076739  0.12984594512260622  0.32347092887715556  1.0000
  H   H954      1.0  0.06558846151886887  0.11557364109355425  0.3721515697359125  1.0000
  H   H955      1.0  0.0837415812339435  0.07874754771607141  0.30880083290678983  1.0000
  H   H956      1.0  0.09853486680113484  0.09259789757851662  0.2630872688263567  1.0000
  C   C1503     1.0  0.056427924643365455  0.06977381958917361  0.30589437344713466  1.0000
  C   C1504     1.0  0.059521682913501524  0.07102874716335222  0.3535857537622695  1.0000
  C   C1505     1.0  0.05875892611315769  0.05928851500739416  0.3810009934089987  1.0000
  C   C1506     1.0  0.05563839576055078  0.046304100516058766  0.3621638092064318  1.0000
  C   C1507     1.0  0.05294770726914501  0.045320001967368996  0.31513217087122597  1.0000
  C   C1508     1.0  0.053074228666665856  0.05711106390564819  0.28596889691870203  1.0000
  C   C1509     1.0  0.06277351192997095  0.08620506831648703  0.37509785336422796  1.0000
  C   C1510     1.0  0.04691665308850956  0.09171838940906425  0.3802961408663395  1.0000
  C   C1511     1.0  0.03864465179647232  0.0862745299184801  0.41597930083846096  1.0000
  C   C1512     1.0  0.024568472091939124  0.08975265534582057  0.41884452642437064  1.0000
  C   C1513     1.0  0.018332250575292686  0.09804643397632294  0.38498693453773636  1.0000
  C   C1514     1.0  0.026754357936353862  0.10357825118189955  0.3501372626973094  1.0000
  C   C1515     1.0  0.04066716094323153  0.10036453069570532  0.34720437126730447  1.0000
  C   C1516     1.0  0.08442362486079036  0.07842791325045392  0.42333443712110963  1.0000
  C   C1517     1.0  0.09296047112425361  0.07885064215157823  0.46129779506873364  1.0000
  C   C1518     1.0  0.08965206252733933  0.08671058954236455  0.5006074213728366  1.0000
  C   C1519     1.0  0.0771200446575119  0.09425041539729094  0.4994408904147357  1.0000
  C   C1520     1.0  0.06887000645630802  0.09432424486755572  0.4595673820765053  1.0000
  C   C1521     1.0  0.07207882730594206  0.08608098178848225  0.420754676814977  1.0000
  C   C1522     1.0  0.09992826374339389  0.08709310478701107  0.5449215007298199  1.0000
  C   C1523     1.0  0.1012393172336194  0.041821608266490735  0.571596645206757  1.0000
  C   C1524     1.0  0.1135446223832398  0.04834593801034947  0.5585885915319816  1.0000
  C   C1525     1.0  0.11337945196563683  0.06274927147142582  0.5504581174524079  1.0000
  C   C1526     1.0  0.10121069004438253  0.0705789950272397  0.5576581861756715  1.0000
  C   C1527     1.0  0.08914324633281932  0.06338971414051262  0.5685516822224693  1.0000
  C   C1528     1.0  0.089075906217398  0.04911475511575958  0.576001973598377  1.0000
  C   C1529     1.0  0.0947791560811223  0.09691082720341375  0.5878223507387716  1.0000
  C   C1530     1.0  0.09432319231505328  0.11119773892798951  0.5829482954062832  1.0000
  C   C1531     1.0  0.09211995884153065  0.11987914861622871  0.6208587894132078  1.0000
  C   C1532     1.0  0.08888501776275061  0.11437603626516443  0.6643446670325666  1.0000
  C   C1533     1.0  0.08830925695895936  0.10001294724588665  0.6691341400599358  1.0000
  C   C1534     1.0  0.09179719460683115  0.09139203998478372  0.6324606622653781  1.0000
  C   C1535     1.0  0.12562913495821765  0.09432692028457518  0.5666027649420167  1.0000
  C   C1536     1.0  0.13662126522235818  0.10372323927286285  0.5642978971275211  1.0000
  C   C1537     1.0  0.13774365439426584  0.1121892209240718  0.5255028131795593  1.0000
  C   C1538     1.0  0.12767939966999686  0.11198986678869348  0.48968220696161924  1.0000
  C   C1539     1.0  0.11631697460824789  0.10314195090950572  0.4950249892349759  1.0000
  C   C1540     1.0  0.11483139403618474  0.09407097122864873  0.5335134623268809  1.0000
  H   H957      1.0  0.05591923801283603  0.07902748650115395  0.28447566680707853  1.0000
  H   H958      1.0  0.061346873448002985  0.06011553500164472  0.41781191744937485  1.0000
  H   H959      1.0  0.05667098322952839  0.03687305204633035  0.383541986825285  1.0000
  H   H960      1.0  0.050884348577600935  0.05609757903587007  0.24795197017783593  1.0000
  H   H961      1.0  0.04324902721371336  0.0788598769975765  0.4402614709330701  1.0000
  H   H962      1.0  0.018405658471228263  0.08497868567577194  0.4469540458256191  1.0000
  H   H963      1.0  0.022136867748297654  0.10955057997928737  0.32265893874801216  1.0000
  H   H964      1.0  0.04648646090381554  0.10377587208232998  0.3161598458784231  1.0000
  H   H965      1.0  0.08817916494895021  0.07232727052801166  0.3943579490923903  1.0000
  H   H966      1.0  0.10277060738307962  0.07303132410844453  0.4602052736276119  1.0000
  H   H967      1.0  0.07302864989888933  0.10015061343528875  0.5300350150288579  1.0000
  H   H968      1.0  0.059371262775852474  0.10080077899720062  0.4612378826026076  1.0000
  H   H969      1.0  0.12302696491144456  0.04230701518673088  0.551448435274844  1.0000
  H   H970      1.0  0.12285341813968977  0.06797311187056317  0.5375663644471713  1.0000
  H   H971      1.0  0.0791964515283584  0.06921758063016739  0.5694820875787794  1.0000
  H   H972      1.0  0.07918359873984196  0.04380995643159595  0.5844108644323011  1.0000
  H   H973      1.0  0.09615224188877414  0.11592135465220467  0.5486642677313402  1.0000
  H   H974      1.0  0.09222156245144635  0.13096030379712906  0.6162666750977832  1.0000
  H   H975      1.0  0.08551018591363158  0.09526206554554487  0.7024630925395756  1.0000
  H   H976      1.0  0.09194061684404346  0.08050599109306342  0.6403268166414546  1.0000
  H   H977      1.0  0.12543438522857814  0.08791528750165296  0.5972391807086983  1.0000
  H   H978      1.0  0.14412432214098564  0.10483586175152518  0.5932990549952335  1.0000
  H   H979      1.0  0.1278192857460467  0.1188260153356946  0.45880614133043335  1.0000
  H   H980      1.0  0.10818278830106993  0.1046239839058663  0.4682899322919128  1.0000
  C   C1541     1.0  0.08850695028562569  0.11369589241074472  0.789230440540922  1.0000
  C   C1542     1.0  0.07788735398151381  0.11760135794581651  0.8196835946465121  1.0000
  C   C1543     1.0  0.0723627261573967  0.10796908822964203  0.8512927069220636  1.0000
  C   C1544     1.0  0.07686206945085543  0.09396527101513213  0.8490336545228409  1.0000
  C   C1545     1.0  0.08823969024332019  0.09083054908443317  0.8202439524179262  1.0000
  C   C1546     1.0  0.09370672330359855  0.1005436533174304  0.7914401532621584  1.0000
  H   H981      1.0  0.07381912703569435  0.12851800651003456  0.8188553929088876  1.0000
  H   H982      1.0  0.06364249834898182  0.11167625837315998  0.8718638283795721  1.0000
  H   H983      1.0  0.092538560094626  0.07997473606981952  0.8168606602131622  1.0000
  H   H984      1.0  0.10194795418330659  0.09744475021842118  0.7660478404128611  1.0000
  C   C1547     1.0  0.0679211364295395  0.06394037538770597  0.81076368571916  1.0000
  C   C1548     1.0  0.0707454397411578  0.06634594787817921  0.8581473978994242  1.0000
  C   C1549     1.0  0.07365640894794898  0.05477154918805919  0.8871908469196961  1.0000
  C   C1550     1.0  0.07499315093230396  0.04161701861461569  0.8687237103020253  1.0000
  C   C1551     1.0  0.07247396614416825  0.03954460221389634  0.8220695205034135  1.0000
  C   C1552     1.0  0.06884891017090276  0.050564327086875915  0.7926489753728189  1.0000
  C   C1553     1.0  0.07004275971645393  0.08148893552400596  0.8819925594175846  1.0000
  C   C1554     1.0  0.05330918495660167  0.08294669081913915  0.8874939335130396  1.0000
  C   C1555     1.0  0.046116765842914444  0.07736813114874753  0.925700465587881  1.0000
  C   C1556     1.0  0.03170125031180551  0.07774194077561973  0.9285621669110773  1.0000
  C   C1557     1.0  0.024032136319991085  0.08334187837733123  0.8928860554643824  1.0000
  C   C1558     1.0  0.030643393981988374  0.08815535290137785  0.853322682244922  1.0000
  C   C1559     1.0  0.04513737443432963  0.08822463034039332  0.8505631845404112  1.0000
  C   C1560     1.0  0.09328286910779404  0.07909033619687565  0.9254431944098104  1.0000
  C   C1561     1.0  0.1027059417714002  0.08139553156798202  0.9608514618902948  1.0000
  C   C1562     1.0  0.09816661551619943  0.08692751296049975  0.0026139750428517683  1.0000
  C   C1563     1.0  0.0838715578886744  0.09078261553059164  0.006138237756147857  1.0000
  C   C1564     1.0  0.07496697889155027  0.08985125151023275  0.9680973460288312  1.0000
  C   C1565     1.0  0.07951832222823395  0.0836137142063184  0.9274203057919694  1.0000
  C   C1566     1.0  0.10980245272650295  0.08872107699478876  0.04353556972361621  1.0000
  C   C1567     1.0  0.11384322283338043  0.04416676732378108  0.07524195165005457  1.0000
  C   C1568     1.0  0.12378143578228638  0.05055936505661991  0.04768961818377815  1.0000
  C   C1569     1.0  0.12314186331839545  0.0645948774810103  0.03899490964380571  1.0000
  C   C1570     1.0  0.11194105996012266  0.07278081269933079  0.05690168849006244  1.0000
  C   C1571     1.0  0.10187210499321676  0.06599423977071985  0.08410053840619527  1.0000
  C   C1572     1.0  0.1031154636556825  0.052130265823181324  0.09422609760776586  1.0000
  C   C1573     1.0  0.1054479696185722  0.09797201710728276  0.08785986944246806  1.0000
  C   C1574     1.0  0.09846899849645561  0.11073517529357961  0.08421542937064871  1.0000
  C   C1575     1.0  0.09527509831313048  0.11864066236126933  0.12293156983383272  1.0000
  C   C1576     1.0  0.09962052006587784  0.11466511856240752  0.16757516775450917  1.0000
  C   C1577     1.0  0.10782428501976891  0.10271906574935231  0.17158930298495328  1.0000
  C   C1578     1.0  0.11037576614157903  0.09431918218120353  0.13239033853004772  1.0000
  C   C1579     1.0  0.1366224517144743  0.0960630526431086  0.04292939653692931  1.0000
  C   C1580     1.0  0.14750538939646204  0.10406569991699965  0.024747513743272703  1.0000
  C   C1581     1.0  0.14527646260572677  0.11370657868590925  0.9906279575549323  1.0000
  C   C1582     1.0  0.1320204191489147  0.11558549912895072  0.9722665488186604  1.0000
  C   C1583     1.0  0.12090794534444317  0.10817873215889612  0.9901310365123576  1.0000
  C   C1584     1.0  0.12293122129801982  0.09765608988638329  0.024062432314435098  1.0000
  H   H985      1.0  0.06542086280580946  0.07262504041722265  0.7865061854635441  1.0000
  H   H986      1.0  0.07533313974160226  0.055939089236347356  0.9247982543332772  1.0000
  H   H987      1.0  0.07753565196039956  0.03303186041035547  0.8919063104300862  1.0000
  H   H988      1.0  0.0666186125430947  0.049127282225852574  0.7552318781457559  1.0000
  H   H989      1.0  0.05160745515557131  0.0719968992775837  0.9540707804299133  1.0000
  H   H990      1.0  0.02630732234861611  0.07307180906950943  0.958282274372302  1.0000
  H   H991      1.0  0.024429382752387978  0.09217121949830714  0.824039583360146  1.0000
  H   H992      1.0  0.049751797376876926  0.09142551210582855  0.8180659580611093  1.0000
  H   H993      1.0  0.09739335269799834  0.0740777427091391  0.8939644798546509  1.0000
  H   H994      1.0  0.11327117041628612  0.07814078121984777  0.954948321845524  1.0000
  H   H995      1.0  0.08009721179524865  0.0952324526751602  0.03813745652566081  1.0000
  H   H996      1.0  0.06431311961459713  0.09360778441343566  0.9726753632934027  1.0000
  H   H997      1.0  0.1321625692452307  0.04414859818650482  0.032745616515335065  1.0000
  H   H998      1.0  0.13125039220057722  0.06865121433568902  0.015488183074003115  1.0000
  H   H999      1.0  0.09281181755284226  0.07162441003190262  0.09837309754250122  1.0000
  H   H1000     1.0  0.09505104827175774  0.047065082643584125  0.11573573022582505  1.0000
  H   H1001     1.0  0.09511857445505266  0.11427461335871468  0.05001386944319683  1.0000
  H   H1002     1.0  0.08938127629685604  0.12810913289311793  0.11670173063553947  1.0000
  H   H1003     1.0  0.11165920529833316  0.09931006008651404  0.2053115631833969  1.0000
  H   H1004     1.0  0.11633285324433885  0.08480249470421485  0.13871991436312725  1.0000
  H   H1005     1.0  0.13816067293290532  0.08867875975214215  0.07156649806635822  1.0000
  H   H1006     1.0  0.15824309087755106  0.10309636234936219  0.03980760462549175  1.0000
  H   H1007     1.0  0.1297295030565457  0.12318420137000373  0.9446469019345599  1.0000
  H   H1008     1.0  0.11047945147333588  0.11063310897585246  0.977048973320603  1.0000
  C   C1585     1.0  0.9777848983044537  0.9592530912085323  0.15653611965765227  1.0000
  C   C1586     1.0  0.9717782967422738  0.9485350912137008  0.18129089338211435  1.0000
  C   C1587     1.0  0.9586381887886081  0.949818505730618  0.19937881933183452  1.0000
  C   C1588     1.0  0.9519681798761819  0.9627397412991477  0.19899960866388386  1.0000
  C   C1589     1.0  0.957615667940365  0.9730873699511624  0.17066418402271308  1.0000
  C   C1590     1.0  0.9705886616302234  0.9714757407390637  0.149615524967553  1.0000
  H   H1009     1.0  0.978088476255007  0.9393392510679768  0.18726522353369365  1.0000
  H   H1010     1.0  0.954662905817085  0.9415359639856553  0.22064844965911823  1.0000
  H   H1011     1.0  0.9522800010348133  0.9832226126461696  0.1666659079744788  1.0000
  H   H1012     1.0  0.9757857692371931  0.9801320639619797  0.13273994539120668  1.0000
  C   C1591     1.0  0.9498387037031819  0.9876477267789603  0.2697396671239742  1.0000
  C   C1592     1.0  0.9378039530947845  0.981125336029854  0.2524630264508548  1.0000
  C   C1593     1.0  0.9246915008217221  0.9869337176735901  0.2609180851263231  1.0000
  C   C1594     1.0  0.9236661948699  0.9994630645254472  0.2844393669011316  1.0000
  C   C1595     1.0  0.935620950130054  0.006667391471605111  0.29571242604215137  1.0000
  C   C1596     1.0  0.9488589514946337  0.000558892712674286  0.2900862930466457  1.0000
  C   C1597     1.0  0.9385600936882674  0.965477009063117  0.23029611883676587  1.0000
  C   C1598     1.0  0.9363678247208751  0.9568233292493821  0.27800300590783916  1.0000
  C   C1599     1.0  0.9230482248075996  0.9540010125915483  0.2950118026147481  1.0000
  C   C1600     1.0  0.9211689289704407  0.945707371972591  0.33382944184407504  1.0000
  C   C1601     1.0  0.9325261688587777  0.9404560557013139  0.3580721401962952  1.0000
  C   C1602     1.0  0.9458066200161859  0.9447196945082215  0.34472822428494276  1.0000
  C   C1603     1.0  0.9477289673456063  0.9529188389999761  0.3056159566927843  1.0000
  C   C1604     1.0  0.9229983434803785  0.9729052277433339  0.1588395777670625  1.0000
  C   C1605     1.0  0.9120980554853233  0.9704429300306575  0.12803434981641393  1.0000
  C   C1606     1.0  0.9046050597115758  0.9580395878107995  0.12760579947047712  1.0000
  C   C1607     1.0  0.910642014975754  0.9470585609547414  0.15312075666219715  1.0000
  C   C1608     1.0  0.9215374830526762  0.9492416573021777  0.18332439296768613  1.0000
  C   C1609     1.0  0.9270259949268242  0.9626330392710861  0.19016533932046487  1.0000
  C   C1610     1.0  0.8904452962667745  0.9568162412992767  0.0974310621192372  1.0000
  C   C1611     1.0  0.8768106375219928  0.9996236568635345  0.0645630832024965  1.0000
  C   C1612     1.0  0.8803358755377567  0.9905863210675308  0.028810072343397476  1.0000
  C   C1613     1.0  0.8841798654633565  0.9770744853823154  0.038684774525035666  1.0000
  C   C1614     1.0  0.8840876558605214  0.9719184734600165  0.08514865413712948  1.0000
  C   C1615     1.0  0.8809211230731182  0.9814013506256027  0.12016149934118209  1.0000
  C   C1616     1.0  0.8767403224983693  0.994771601944867  0.11033832188041229  1.0000
  C   C1617     1.0  0.879499369514567  0.9473297273600704  0.1289140057896526  1.0000
  C   C1618     1.0  0.8805097827443398  0.9328601622690582  0.13204390350533074  1.0000
  C   C1619     1.0  0.8713033960246187  0.9249849882695679  0.15777419314883312  1.0000
  C   C1620     1.0  0.8601134333158148  0.9308641092048211  0.18061353008861888  1.0000
  C   C1621     1.0  0.8586197095852417  0.9452445762903382  0.17766336977131883  1.0000
  C   C1622     1.0  0.8680540732792501  0.9532407902647673  0.1532201408707121  1.0000
  C   C1623     1.0  0.8814908746011478  0.9426820526145973  0.025239677031184477  1.0000
  C   C1624     1.0  0.8829906968649829  0.9332781911222227  0.988767146842312  1.0000
  C   C1625     1.0  0.896109737817798  0.929132873406992  0.975572307243732  1.0000
  C   C1626     1.0  0.9077891975401229  0.9350188211434397  0.9968200871421933  1.0000
  C   C1627     1.0  0.9063694025010481  0.9443628704238575  0.03321511879400035  1.0000
  C   C1628     1.0  0.8930521163570082  0.9478298284101182  0.05050197982898832  1.0000
  H   H1013     1.0  0.9600368158938124  0.9828621007732067  0.2647743333872115  1.0000
  H   H1014     1.0  0.9149051315221522  0.9819209769772286  0.2510068010977209  1.0000
  H   H1015     1.0  0.9128538530321954  0.0032630869640064564  0.29051413854003977  1.0000
  H   H1016     1.0  0.958475268291174  0.0063868405041838106  0.30065943361280484  1.0000
  H   H1017     1.0  0.9135411636091922  0.9578680291021839  0.27799912921885456  1.0000
  H   H1018     1.0  0.9102929392163016  0.9438957653104821  0.3462831289940489  1.0000
  H   H1019     1.0  0.9551490670638252  0.9403965243623758  0.36210037247759247  1.0000
  H   H1020     1.0  0.958315158483174  0.9558716536884125  0.2964267940941364  1.0000
  H   H1021     1.0  0.927908357480219  0.9830115698932397  0.15628801156263625  1.0000
  H   H1022     1.0  0.9098370113819768  0.9787336248688617  0.102791113279889  1.0000
  H   H1023     1.0  0.9064406358878169  0.93667803069141  0.15111827058850238  1.0000
  H   H1024     1.0  0.9258522842333137  0.9402638463737618  0.2018165518506213  1.0000
  H   H1025     1.0  0.8817024096794069  0.9938458041119734  0.9923830403861537  1.0000
  H   H1026     1.0  0.887341773178302  0.9705087935512883  0.008242222595985504  1.0000
  H   H1027     1.0  0.8825883847258265  0.9789387686315698  0.15648748483220878  1.0000
  H   H1028     1.0  0.8740095562274299  0.002230980625337331  0.13832836877568006  1.0000
  H   H1029     1.0  0.8884929045617491  0.9269800767650536  0.1127034545873052  1.0000
  H   H1030     1.0  0.8728819049727016  0.9137852212654279  0.15886072334334228  1.0000
  H   H1031     1.0  0.8498533051823214  0.9503300859768505  0.19527164356575938  1.0000
  H   H1032     1.0  0.8652027202629078  0.9640806330915309  0.1516624167514353  1.0000
  H   H1033     1.0  0.870723586205231  0.9460530233628368  0.03438950885795196  1.0000
  H   H1034     1.0  0.8737417360801887  0.9282321358711755  0.9731511387596976  1.0000
  H   H1035     1.0  0.918468122275041  0.9321330903339502  0.9864376091888234  1.0000
  H   H1036     1.0  0.9157077551281548  0.9476043052335251  0.050469909038297324  1.0000
  C   C1629     1.0  0.9775765899892902  0.9404280690057352  0.780109648638912  1.0000
  C   C1630     1.0  0.9685350575503001  0.9349309249491577  0.7481058189394714  1.0000
  C   C1631     1.0  0.9545853903374301  0.9391655092456589  0.7486873222871653  1.0000
  C   C1632     1.0  0.9494436136129938  0.9490847903546429  0.7806559093594728  1.0000
  C   C1633     1.0  0.958468044185065  0.952087370605359  0.8182492197222008  1.0000
  C   C1634     1.0  0.9722729483562705  0.9481366891731252  0.8165928162469517  1.0000
  H   H1037     1.0  0.9721125333735045  0.92826358209776  0.7204826477926578  1.0000
  H   H1038     1.0  0.9474244717920715  0.9348040693713809  0.7223857496578375  1.0000
  H   H1039     1.0  0.95527383765663  0.9585633817407759  0.8477754927341942  1.0000
  H   H1040     1.0  0.9791009671948447  0.9514848766662289  0.8460767981063856  1.0000
  C   C1635     1.0  0.9351630678116225  0.9771216156233856  0.8351445351697415  1.0000
  C   C1636     1.0  0.9361129895579091  0.9722411117458021  0.7898436622530354  1.0000
  C   C1637     1.0  0.9401795709423759  0.9819152744609686  0.7548019180947337  1.0000
  C   C1638     1.0  0.9436097612358209  0.9957380988041333  0.7659491610568888  1.0000
  C   C1639     1.0  0.9402826704675201  0.0006685502180250324  0.8100165420239415  1.0000
  C   C1640     1.0  0.9369454779691267  0.9912188011721317  0.844903218622858  1.0000
  C   C1641     1.0  0.9335488015197773  0.9558056352640055  0.779158097706322  1.0000
  C   C1642     1.0  0.9242595469057046  0.9458944447245909  0.8142703271188896  1.0000
  C   C1643     1.0  0.9143343498212526  0.9513031344600933  0.8452027809534881  1.0000
  C   C1644     1.0  0.9049418871007229  0.9430933350449072  0.8676100432846239  1.0000
  C   C1645     1.0  0.9051942555551165  0.9287928633792765  0.8617069032398531  1.0000
  C   C1646     1.0  0.914887813227645  0.9230860975028029  0.8301894217948474  1.0000
  C   C1647     1.0  0.9241565217303539  0.9315694957290753  0.8072781898957104  1.0000
  C   C1648     1.0  0.9320477707603029  0.9560107953192335  0.6871713166265845  1.0000
  C   C1649     1.0  0.9249064294847911  0.9569232874820416  0.6449224552195925  1.0000
  C   C1650     1.0  0.9103008829254149  0.9571746505784551  0.6437735455750581  1.0000
  C   C1651     1.0  0.9033313888654961  0.9579522688587024  0.6870655887451855  1.0000
  C   C1652     1.0  0.9107327191727638  0.9571977343386154  0.7279999001601181  1.0000
  C   C1653     1.0  0.9253166848151427  0.955900926002406  0.7300897879491025  1.0000
  C   C1654     1.0  0.9018151388126995  0.9579612395742125  0.5949378371569161  1.0000
  C   C1655     1.0  0.8984966919535217  0.004658445664997846  0.5927034545966864  1.0000
  C   C1656     1.0  0.9087778536362794  0.9979308774773005  0.566965764001486  1.0000
  C   C1657     1.0  0.9098756470526833  0.9837322459926547  0.5678397811543836  1.0000
  C   C1658     1.0  0.9002200826514319  0.9749787437855053  0.5923298827490772  1.0000
  C   C1659     1.0  0.8902201988344958  0.982013700342811  0.6182578835307954  1.0000
  C   C1660     1.0  0.8896174302012978  0.996497590726042  0.6204957903537384  1.0000
  C   C1661     1.0  0.8875303163537804  0.9495994317854362  0.5981660618022951  1.0000
  C   C1662     1.0  0.886286190136838  0.9371904207243035  0.6223354554900788  1.0000
  C   C1663     1.0  0.8735051064268017  0.9304269443023095  0.6249857010504773  1.0000
  C   C1664     1.0  0.8618028244840015  0.9356522616507524  0.6014330533375205  1.0000
  C   C1665     1.0  0.863395989977228  0.947440353173529  0.5741094445213369  1.0000
  C   C1666     1.0  0.8758747764161467  0.9544001239479997  0.5719244016390935  1.0000
  C   C1667     1.0  0.9092833489949672  0.9555096984848321  0.5066656289769924  1.0000
  C   C1668     1.0  0.917459713341464  0.9498750689707274  0.47117630345410216  1.0000
  C   C1669     1.0  0.9250877611049835  0.93788886556038  0.4794688936184875  1.0000
  C   C1670     1.0  0.9243905868674271  0.9314859391009094  0.5233847312888683  1.0000
  C   C1671     1.0  0.9165744225204545  0.9373302646287069  0.558616785633688  1.0000
  C   C1672     1.0  0.909696386431945  0.9502986953472741  0.5517444733427609  1.0000
  H   H1041     1.0  0.9330977122378202  0.970479352021524  0.8655236797583526  1.0000
  H   H1042     1.0  0.9419755789057577  0.9788745413622728  0.719235058792151  1.0000
  H   H1043     1.0  0.946917241885473  0.002768149507367479  0.7378678357573467  1.0000
  H   H1044     1.0  0.9361002921211231  0.9944693558432536  0.8806004756458327  1.0000
  H   H1045     1.0  0.91260224429687  0.9623654325082375  0.8471587467593674  1.0000
  H   H1046     1.0  0.8969544973997007  0.9482182357921006  0.8902534312175503  1.0000
  H   H1047     1.0  0.9155748157481984  0.9119683790568209  0.8255232979624435  1.0000
  H   H1048     1.0  0.9315126931643914  0.9270164787285653  0.7821220026482039  1.0000
  H   H1049     1.0  0.943391995184604  0.9564883970734267  0.6850250406341872  1.0000
  H   H1050     1.0  0.9310767812112638  0.957196779244445  0.6117027548840649  1.0000
  H   H1051     1.0  0.8921367860553108  0.9586762701102663  0.6878761691692437  1.0000
  H   H1052     1.0  0.9047441696883624  0.9578875919373565  0.7594081294610114  1.0000
  H   H1053     1.0  0.9169526177348951  0.003954381419360775  0.549816701638588  1.0000
  H   H1054     1.0  0.9193082680360305  0.979041952776484  0.5527982278940363  1.0000
  H   H1055     1.0  0.8831104983350292  0.9766152682405006  0.6416660364725071  1.0000
  H   H1056     1.0  0.8816864353292474  0.0013611324238105293  0.6425717719898242  1.0000
  H   H1057     1.0  0.8953036928446075  0.9328453044478812  0.6399567690565585  1.0000
  H   H1058     1.0  0.8723981332179039  0.9203989776423667  0.6428290431678948  1.0000
  H   H1059     1.0  0.8543562953638644  0.9518320797646364  0.5579048845656022  1.0000
  H   H1060     1.0  0.8767194648313187  0.963502672565382  0.5499435750962667  1.0000
  H   H1061     1.0  0.9033273848931961  0.9649733578496746  0.4985351548974186  1.0000
  H   H1062     1.0  0.9174333166031389  0.9549691358493232  0.4374808276522796  1.0000
  H   H1063     1.0  0.9297333552922196  0.9217857323698859  0.5298306077914866  1.0000
  H   H1064     1.0  0.9166516573010199  0.9328208224413935  0.5935140350207446  1.0000
  C   C1673     1.0  0.07341570462343004  0.9326172501846225  0.3244503214851805  1.0000
  C   C1674     1.0  0.0642972451616064  0.9296045747647996  0.2880728817585397  1.0000
  C   C1675     1.0  0.060834849405502565  0.9395906482314944  0.2542304442015727  1.0000
  C   C1676     1.0  0.06562563583698554  0.9534311198672534  0.25833268599984915  1.0000
  C   C1677     1.0  0.07570002162246518  0.9555811247380275  0.2932359266335183  1.0000
  C   C1678     1.0  0.07987925890644239  0.9453120533924908  0.3244704097826463  1.0000
  H   H1065     1.0  0.05936238638817061  0.9194623738484496  0.2835413847617838  1.0000
  H   H1066     1.0  0.053521436772546456  0.9367336788345377  0.22577907131713446  1.0000
  H   H1067     1.0  0.0811811502220618  0.9653860820367186  0.2960761299541635  1.0000
  H   H1068     1.0  0.08801194894475954  0.9479529435887133  0.3496632493623711  1.0000
  C   C1679     1.0  0.059105320965205536  0.9843418866653089  0.28680379475548184  1.0000
  C   C1680     1.0  0.06323965351448423  0.9808897742843685  0.24086749727156842  1.0000
  C   C1681     1.0  0.06709112222983821  0.9918093871300531  0.2103294084345877  1.0000
  C   C1682     1.0  0.06811746655502411  0.005049667290143667  0.22669855145903337  1.0000
  C   C1683     1.0  0.06480266717111763  0.008353075929261378  0.2733745916864676  1.0000
  C   C1684     1.0  0.06038137692317358  0.9980288769660238  0.3028028901950315  1.0000
  C   C1685     1.0  0.06132863433182724  0.9653777183692247  0.22167506738750134  1.0000
  C   C1686     1.0  0.044983396758629016  0.964852316876655  0.20901662057388493  1.0000
  C   C1687     1.0  0.03955566574917066  0.9715283429447832  0.16953254326547373  1.0000
  C   C1688     1.0  0.0252771880927953  0.9722779357875567  0.16191837367339784  1.0000
  C   C1689     1.0  0.01608956230739014  0.9668558031720945  0.19311303265386562  1.0000
  C   C1690     1.0  0.02108837206690568  0.9607621395199181  0.2332910372905248  1.0000
  C   C1691     1.0  0.0352800189338498  0.9601218538299668  0.24159032355406543  1.0000
  C   C1692     1.0  0.08668492957709521  0.9650280610526599  0.1881328970137071  1.0000
  C   C1693     1.0  0.0965910882209676  0.9628457077198834  0.1537463132938072  1.0000
  C   C1694     1.0  0.09265033764458883  0.9589941863390209  0.10849125579237388  1.0000
  C   C1695     1.0  0.07829222196203461  0.9568832326626092  0.10024342376444738  1.0000
  C   C1696     1.0  0.06867715215016604  0.9577433466289451  0.13592482160521221  1.0000
  C   C1697     1.0  0.07242221365453655  0.9623583273741507  0.1807555578759647  1.0000
  C   C1698     1.0  0.10450117483049982  0.9584041921301721  0.06804117807424828  1.0000
  C   C1699     1.0  0.10630052409937499  0.004010171616436464  0.04845931716036198  1.0000
  C   C1700     1.0  0.11545207814430511  0.9974327881401854  0.0783707920869187  1.0000
  C   C1701     1.0  0.11507462940061086  0.9831496169627237  0.0837830023357273  1.0000
  C   C1702     1.0  0.10550472851151521  0.9748509951143994  0.05864302669670197  1.0000
  C   C1703     1.0  0.09626394367190136  0.9816331075143523  0.02933074691665982  1.0000
  C   C1704     1.0  0.09666660209970027  0.9961999246039739  0.025288805253407824  1.0000
  C   C1705     1.0  0.1013572137253343  0.9487637606468139  0.022634083879363383  1.0000
  C   C1706     1.0  0.09437637500466774  0.9360629310290173  0.026676800880412303  1.0000
  C   C1707     1.0  0.09367128343845176  0.9269316699256445  0.9898561440207204  1.0000
  C   C1708     1.0  0.09934571218952463  0.930122365710362  0.9476072826137286  1.0000
  C   C1709     1.0  0.10666956760918365  0.9427160447644569  0.9430609837135768  1.0000
  C   C1710     1.0  0.10737272026309261  0.9520399510036494  0.9794983359063436  1.0000
  C   C1711     1.0  0.1316626620196318  0.9544546021704584  0.06651622959820512  1.0000
  C   C1712     1.0  0.14393998612766787  0.9480053450438217  0.080732048104827  1.0000
  C   C1713     1.0  0.14324622977241502  0.9371710407422812  0.11234433221682034  1.0000
  C   C1714     1.0  0.13039969957754305  0.9327846686697577  0.12888863109811685  1.0000
  C   C1715     1.0  0.1182780205967244  0.9395300453404777  0.11569379149953682  1.0000
  C   C1716     1.0  0.1184900783726154  0.9505228915894257  0.08457102747842028  1.0000
  H   H1069     1.0  0.054715964738620726  0.9764532110388888  0.30970938783427754  1.0000
  H   H1070     1.0  0.0692732388976828  0.9897146799766874  0.17451902257851618  1.0000
  H   H1071     1.0  0.07107464495050439  0.013160488032569084  0.20311066111894358  1.0000
  H   H1072     1.0  0.057008357888181614  0.9999620939788393  0.33873662524606835  1.0000
  H   H1073     1.0  0.04686840636114911  0.9765324175126309  0.14620967748142377  1.0000
  H   H1074     1.0  0.02131293757001823  0.9772521787846168  0.1306905866234251  1.0000
  H   H1075     1.0  0.014018513663465685  0.9573558757714395  0.26090575020682655  1.0000
  H   H1076     1.0  0.03843639112796663  0.9559864215727494  0.2751099386464945  1.0000
  H   H1077     1.0  0.08978543813990082  0.968827872786859  0.22270379967351242  1.0000
  H   H1078     1.0  0.10758958113834881  0.9643963743222707  0.16144999915880082  1.0000
  H   H1079     1.0  0.07405592062558194  0.9538334619664686  0.06591921949457279  1.0000
  H   H1080     1.0  0.05773180074990513  0.9552916135021643  0.12802271974946006  1.0000
  H   H1081     1.0  0.122646962910474  0.0026513896323829833  0.10209154713129977  1.0000
  H   H1082     1.0  0.12180509831574082  0.9786174358478985  0.11000457420146317  1.0000
  H   H1083     1.0  0.08825140596430432  0.9758346622591852  0.009454010941552054  1.0000
  H   H1084     1.0  0.08914566782325895  0.0010948093416498494  0.002346131076641278  1.0000
  H   H1085     1.0  0.0895969596555832  0.9327620924105275  0.05918329617065024  1.0000
  H   H1086     1.0  0.0879220700721742  0.9174625582452466  0.9941064048529553  1.0000
  H   H1087     1.0  0.11210741215857772  0.9458408406737213  0.9110853481158427  1.0000
  H   H1088     1.0  0.11334884832392773  0.9615213115772526  0.9742048933109732  1.0000
  H   H1089     1.0  0.1324053743177176  0.9631483645217245  0.04217203247984201  1.0000
  H   H1090     1.0  0.15421372995772684  0.9511543112007637  0.0683284054853819  1.0000
  H   H1091     1.0  0.12951257072389694  0.9241371331083188  0.1534654295555575  1.0000
  H   H1092     1.0  0.1082582337039706  0.9359750831995993  0.13111067873884996  1.0000
  C   C1717     1.0  0.0914289125263231  0.9327794324103842  0.831673136397145  1.0000
  C   C1718     1.0  0.08001345579997109  0.9269182107489534  0.8090438455150717  1.0000
  C   C1719     1.0  0.07100890331262906  0.9351625038141141  0.783027738165521  1.0000
  C   C1720     1.0  0.07291908993217713  0.9494221173223392  0.7793660292064065  1.0000
  C   C1721     1.0  0.08469330720184905  0.9551133537983427  0.8017979613765353  1.0000
  C   C1722     1.0  0.09368933922601458  0.946932059597145  0.8280149517007439  1.0000
  H   H1093     1.0  0.07758798734013016  0.9160017197933216  0.81359719294065  1.0000
  H   H1094     1.0  0.06209431401681544  0.9300836576777469  0.7665623827690023  1.0000
  H   H1095     1.0  0.08681923022548688  0.9661112763127835  0.7960639859420028  1.0000
  H   H1096     1.0  0.1025191754151186  0.9518147928704772  0.8445754621905215  1.0000
  C   C1723     1.0  0.06025444198597096  0.9784670126420104  0.8081944982011674  1.0000
  C   C1724     1.0  0.061844664919725255  0.9744208814996852  0.7611984549193659  1.0000
  C   C1725     1.0  0.060230667030758155  0.9850309568421309  0.7270730190665212  1.0000
  C   C1726     1.0  0.05823860535117687  0.9986319184622954  0.7397744618852398  1.0000
  C   C1727     1.0  0.05827818786343627  0.0022668010576587516  0.7865202825143972  1.0000
  C   C1728     1.0  0.05880408181858507  0.9920951885040976  0.8207197278842212  1.0000
  C   C1729     1.0  0.06299912935850979  0.958372883750747  0.7453815638620935  1.0000
  C   C1730     1.0  0.04669012257595909  0.953909561304578  0.7477956838207013  1.0000
  C   C1731     1.0  0.037273287138176084  0.956339591431461  0.7113583316279345  1.0000
  C   C1732     1.0  0.02290705130603703  0.9550031088826109  0.7172544231472787  1.0000
  C   C1733     1.0  0.017434990053890383  0.951035119008849  0.7593129743677526  1.0000
  C   C1734     1.0  0.026453248298975003  0.94829350606702  0.7955635406367146  1.0000
  C   C1735     1.0  0.04074300971097293  0.9493477281092247  0.7893361684223208  1.0000
  C   C1736     1.0  0.08395920316455958  0.964176479009441  0.6904805993143692  1.0000
  C   C1737     1.0  0.09086781034168932  0.9637372092884006  0.6490528911195753  1.0000
  C   C1738     1.0  0.08598176933734819  0.9559179652889584  0.6110578148075317  1.0000
  C   C1739     1.0  0.07365765311313302  0.9482477400663011  0.618634979641118  1.0000
  C   C1740     1.0  0.06636156603587501  0.9488056378437683  0.6603798714801086  1.0000
  C   C1741     1.0  0.07108871850082878  0.9571508892230765  0.6967114957914765  1.0000
  C   C1742     1.0  0.09491651937343966  0.9559939296720699  0.5638503157629325  1.0000
  C   C1743     1.0  0.09768041433156828  0.0015239335029466616  0.5428633313052551  1.0000
  C   C1744     1.0  0.10999434522516957  0.993981248881397  0.5426518755424574  1.0000
  C   C1745     1.0  0.10941531467570999  0.9796181598621194  0.5474413485698265  1.0000
  C   C1746     1.0  0.09651499047472686  0.9724294272151471  0.5519312592665656  1.0000
  C   C1747     1.0  0.08447613003840071  0.9807478650671007  0.5508140679864508  1.0000
  C   C1748     1.0  0.08506987315320678  0.9949486410548527  0.5468457481712795  1.0000
  C   C1749     1.0  0.08722670589670521  0.9478777781904217  0.5224014619918589  1.0000
  C   C1750     1.0  0.0863511964740524  0.9332113479112745  0.5233036732464625  1.0000
  C   C1751     1.0  0.0806000099738434  0.925748432102451  0.48763108606248096  1.0000
  C   C1752     1.0  0.07497935227315694  0.9325872877050753  0.4489205844196382  1.0000
  C   C1753     1.0  0.07557511770114339  0.9471759272708826  0.4474862094953268  1.0000
  C   C1754     1.0  0.08263399398219369  0.9545638280874676  0.4814812476277795  1.0000
  C   C1755     1.0  0.11890474856167818  0.946604788839814  0.5332632396742369  1.0000
  C   C1756     1.0  0.12955819553017298  0.9371043014845554  0.5345566440900166  1.0000
  C   C1757     1.0  0.13278431032168442  0.9299324640300521  0.5750187043013674  1.0000
  C   C1758     1.0  0.12449836292763171  0.9317689542336103  0.6134860318169927  1.0000
  C   C1759     1.0  0.11319414376656108  0.9408373303937497  0.6122983552826119  1.0000
  C   C1760     1.0  0.10985786669279266  0.9482229110611327  0.5711208697404621  1.0000
  H   H1097     1.0  0.06005209878609012  0.9705762867956783  0.8344854980423552  1.0000
  H   H1098     1.0  0.060492315728646676  0.9831966591717346  0.6888982053560995  1.0000
  H   H1099     1.0  0.05717935269427601  0.006431374315945204  0.7134341223660658  1.0000
  H   H1100     1.0  0.05749095111592696  0.9958639734778736  0.8566495862462734  1.0000
  H   H1101     1.0  0.041374503295710345  0.9609066202965844  0.6793826960302004  1.0000
  H   H1102     1.0  0.015697658030356727  0.9570485776261204  0.6884788180932172  1.0000
  H   H1103     1.0  0.022291158119440116  0.9458419934884149  0.8304431687102047  1.0000
  H   H1104     1.0  0.04693271726626757  0.947139203344226  0.8198774290957435  1.0000
  H   H1105     1.0  0.08859049792957895  0.9707820636559998  0.7184949636223589  1.0000
  H   H1106     1.0  0.10113097643903886  0.9690511880957956  0.6466422954236809  1.0000
  H   H1107     1.0  0.06857212157320401  0.9421681103826769  0.5920338446811603  1.0000
  H   H1108     1.0  0.05768629058817092  0.9415943715654929  0.6633050095321443  1.0000
  H   H1109     1.0  0.11995159813669999  0.9993943170815265  0.5417637613387069  1.0000
  H   H1110     1.0  0.11883624586788227  0.974034429779743  0.5525198111396861  1.0000
  H   H1111     1.0  0.07415489661133029  0.9759200059770845  0.5547083782846428  1.0000
  H   H1112     1.0  0.07563266697493602  0.0010408202570568736  0.5474237272562601  1.0000
  H   H1113     1.0  0.09081398277434798  0.9270856481946929  0.552008793046258  1.0000
  H   H1114     1.0  0.08024378424928746  0.9143720187350727  0.4906231851060692  1.0000
  H   H1115     1.0  0.07208718182215557  0.9525583038569351  0.41660661960142764  1.0000
  H   H1116     1.0  0.08515426240541982  0.9651690545118622  0.47124678870836806  1.0000
  H   H1117     1.0  0.11613944855645861  0.9518331761333153  0.49975807405893236  1.0000
  H   H1118     1.0  0.13655386274609801  0.9354641971278125  0.503314055136648  1.0000
  H   H1119     1.0  0.12704385003495444  0.9263738699837029  0.6472308472968014  1.0000
  H   H1120     1.0  0.10693324352905552  0.9413111894670827  0.6439356616598697  1.0000
  C   C1761     1.0  0.510480250967559  0.07760058855741321  0.4127863188202148  1.0000
  C   C1762     1.0  0.5181536546340881  0.08968476310411921  0.4155176224230192  1.0000
  C   C1763     1.0  0.5321042345855468  0.08909102515307893  0.4282789777078639  1.0000
  C   C1764     1.0  0.5385038332680209  0.0764388881194011  0.43822444708478503  1.0000
  C   C1765     1.0  0.5310376767610068  0.06431143073264345  0.42977678936101466  1.0000
  C   C1766     1.0  0.5170076463297203  0.06481873209825699  0.41828769291566986  1.0000
  H   H1121     1.0  0.5133341414320485  0.09950458690722977  0.410823304488909  1.0000
  H   H1122     1.0  0.5374892625029575  0.09914448775732855  0.43086226227670976  1.0000
  H   H1123     1.0  0.5360844832270204  0.054244003265574055  0.43394951641355706  1.0000
  H   H1124     1.0  0.5108312789472458  0.05512030300841219  0.41629648448265766  1.0000
  C   C1767     1.0  0.5499436382993151  0.05756314530494346  0.5201353610672095  1.0000
  C   C1768     1.0  0.5589745770555729  0.06318943631016327  0.487130640757193  1.0000
  C   C1769     1.0  0.5724936190977575  0.05734055070520794  0.4828345645096852  1.0000
  C   C1770     1.0  0.5765208405759533  0.046797730623446464  0.5121670030724473  1.0000
  C   C1771     1.0  0.5671601992256218  0.04029847680650112  0.5413901894910974  1.0000
  C   C1772     1.0  0.5539052247749436  0.04636944743602824  0.5470853980357837  1.0000
  C   C1773     1.0  0.5545246341591591  0.07634870297847773  0.4548025788881292  1.0000
  C   C1774     1.0  0.5589351729003113  0.088387737298888  0.4904504962331177  1.0000
  C   C1775     1.0  0.5731149974077907  0.09169772643232943  0.49817920436337576  1.0000
  C   C1776     1.0  0.5770973435494676  0.10102535647306442  0.5321883395466817  1.0000
  C   C1777     1.0  0.5673661011092502  0.10756635178897225  0.5599489569393139  1.0000
  C   C1778     1.0  0.5534312242356267  0.10440870505832893  0.5533233430383175  1.0000
  C   C1779     1.0  0.5492643961855597  0.09472349508904751  0.5202516617367483  1.0000
  C   C1780     1.0  0.562841698925483  0.06460531886411885  0.3782450199672012  1.0000
  C   C1781     1.0  0.5726246331495002  0.06346235056094351  0.342665825745122  1.0000
  C   C1782     1.0  0.582565209497997  0.07395172373005164  0.3348521828834735  1.0000
  C   C1783     1.0  0.5800007856338214  0.08670845841555698  0.35574260254280654  1.0000
  C   C1784     1.0  0.5700381152380922  0.0880580765676913  0.39007949415844906  1.0000
  C   C1785     1.0  0.5621367565132988  0.07672098197614785  0.40500827101197073  1.0000
  C   C1786     1.0  0.5946443088148105  0.07137785540986148  0.29734486453095  1.0000
  C   C1787     1.0  0.6064478041337832  0.02736958185368837  0.30470211537122666  1.0000
  C   C1788     1.0  0.6046801601739262  0.03388837593487642  0.2619721921038699  1.0000
  C   C1789     1.0  0.6027114584450629  0.04810368252253078  0.2585000884787307  1.0000
  C   C1790     1.0  0.6005137506518744  0.05582638173709917  0.29829535818472597  1.0000
  C   C1791     1.0  0.6034980556580221  0.04958056881642327  0.3421766580805165  1.0000
  C   C1792     1.0  0.6059831399033473  0.035593631676587224  0.3450771262935591  1.0000
  C   C1793     1.0  0.6091325119155387  0.07943652640660238  0.30867254974402586  1.0000
  C   C1794     1.0  0.6132081649918119  0.08373628700303216  0.35406857775399103  1.0000
  C   C1795     1.0  0.6236506273848256  0.09345989121371953  0.3602748043921052  1.0000
  C   C1796     1.0  0.6305653824332907  0.09871101364366618  0.3221556740325535  1.0000
  C   C1797     1.0  0.6286530050275541  0.09270439263145448  0.2784072388410542  1.0000
  C   C1798     1.0  0.618252147100695  0.083163934449766  0.27190391685620924  1.0000
  C   C1799     1.0  0.5877117125149574  0.09088275878455597  0.23690798811318042  1.0000
  C   C1800     1.0  0.581515106515519  0.09572081239259182  0.19648081810269125  1.0000
  C   C1801     1.0  0.5730640089060458  0.08687584945880533  0.17078330410242248  1.0000
  C   C1802     1.0  0.5710978522349764  0.07330449552947313  0.1844028173579547  1.0000
  C   C1803     1.0  0.5776902264390414  0.06853746716271433  0.22422839572328426  1.0000
  C   C1804     1.0  0.58661290100308  0.07704101311655921  0.2512179044342473  1.0000
  H   H1125     1.0  0.5394253790878349  0.06165775016887298  0.5247521452216272  1.0000
  H   H1126     1.0  0.5802860159187021  0.06149625432267466  0.4587920442795802  1.0000
  H   H1127     1.0  0.5871052060894214  0.0430205539829693  0.5079731304436252  1.0000
  H   H1128     1.0  0.5463808396928569  0.04186862077203013  0.5723120705375561  1.0000
  H   H1129     1.0  0.5816730201941038  0.08668234962482396  0.4778618298212246  1.0000
  H   H1130     1.0  0.5881151729122474  0.10341798426105847  0.5376615195404303  1.0000
  H   H1131     1.0  0.5455448776946901  0.10901914036271909  0.57634735134428  1.0000
  H   H1132     1.0  0.5381533281754977  0.0919667232799672  0.5203855837198536  1.0000
  H   H1133     1.0  0.5561315047479208  0.05574489356289578  0.3860935530297113  1.0000
  H   H1134     1.0  0.5730715599784474  0.05365640225500016  0.3241356048248832  1.0000
  H   H1135     1.0  0.5857549235311483  0.09609578699525118  0.34413896755927964  1.0000
  H   H1136     1.0  0.5684859536611013  0.09826923346547385  0.4064038790464359  1.0000
  H   H1137     1.0  0.6045118381718871  0.027769322431156197  0.23023479666555452  1.0000
  H   H1138     1.0  0.6011233115840598  0.052937577047404955  0.225634224119618  1.0000
  H   H1139     1.0  0.6026561176203173  0.05533784289707567  0.3738678856772876  1.0000
  H   H1140     1.0  0.6067678585776365  0.030496857536637324  0.37915780400994487  1.0000
  H   H1141     1.0  0.6076003015722566  0.07991549958046947  0.38427503346965064  1.0000
  H   H1142     1.0  0.6258616026914932  0.09736414329392898  0.39572536302514916  1.0000
  H   H1143     1.0  0.6346719284865873  0.09592570566903053  0.2474606879556025  1.0000
  H   H1144     1.0  0.6161677937376285  0.0788602048830525  0.23692314244284757  1.0000
  H   H1145     1.0  0.5937181379314168  0.09828368016389444  0.25766906733093553  1.0000
  H   H1146     1.0  0.5831528893281412  0.10658160102970922  0.18478449500980465  1.0000
  H   H1147     1.0  0.5648074433753882  0.06621344298531198  0.1630704551543743  1.0000
  H   H1148     1.0  0.5756235235856331  0.057778155311569344  0.23477898100807834  1.0000
  C   C1805     1.0  0.5182964663681063  0.06110771298561921  0.8933089669899779  1.0000
  C   C1806     1.0  0.5278107645703526  0.07014349364904236  0.874387200482292  1.0000
  C   C1807     1.0  0.5418908140183807  0.06829499831647207  0.8814357259088839  1.0000
  C   C1808     1.0  0.5470716814477505  0.05760684986554291  0.9099470112594481  1.0000
  C   C1809     1.0  0.5369304246030872  0.04888982483436628  0.9301516093947738  1.0000
  C   C1810     1.0  0.5227018171436285  0.05026381556206328  0.9208863227215187  1.0000
  H   H1149     1.0  0.5239971770682841  0.0785880418518227  0.8519975594647228  1.0000
  H   H1150     1.0  0.5492208057649347  0.07580208099198209  0.8669369091063843  1.0000
  H   H1151     1.0  0.5393506334919919  0.041032043352717665  0.9561465711680448  1.0000
  H   H1152     1.0  0.5153174414865433  0.04301701601391769  0.9368406600246094  1.0000
  C   C1811     1.0  0.5660316980608312  0.037381610484407905  0.983480752772368  1.0000
  C   C1812     1.0  0.5666822374658145  0.041343732680441364  0.9365833888465388  1.0000
  C   C1813     1.0  0.5674831272568602  0.030270320614064847  0.9038747066044392  1.0000
  C   C1814     1.0  0.5691429550268162  0.016883665196065545  0.9175699915083072  1.0000
  C   C1815     1.0  0.5689305254229946  0.013557296654798323  0.9651686837140823  1.0000
  C   C1816     1.0  0.5671530922388639  0.023955523857041364  0.9977328711849369  1.0000
  C   C1817     1.0  0.5634878606174064  0.05726231937319865  0.9223524160102499  1.0000
  C   C1818     1.0  0.5668239569456088  0.06802626303583362  0.9656127408159576  1.0000
  C   C1819     1.0  0.579086728654303  0.06628650760537112  0.9939407645054305  1.0000
  C   C1820     1.0  0.5814440760795263  0.07443790331548897  0.03274744913194598  1.0000
  C   C1821     1.0  0.5718849523954166  0.0851471152404832  0.04336252842439338  1.0000
  C   C1822     1.0  0.560193464914781  0.08721776250326353  0.016221617387267136  1.0000
  C   C1823     1.0  0.5578642691690291  0.0789271624041251  0.9773661569647997  1.0000
  C   C1824     1.0  0.5700126702131375  0.05992326603913775  0.8339427615845076  1.0000
  C   C1825     1.0  0.5786317334843446  0.06291420009160917  0.7963917423743393  1.0000
  C   C1826     1.0  0.5925223443630194  0.06704090140694816  0.8045715561318991  1.0000
  C   C1827     1.0  0.5974613798182187  0.06582303086625697  0.8495975365569681  1.0000
  C   C1828     1.0  0.5888358338808262  0.06230033790356092  0.8865987707838624  1.0000
  C   C1829     1.0  0.5744144756369253  0.06039473086804456  0.8805335146542801  1.0000
  C   C1830     1.0  0.6016850684135432  0.0740462969728381  0.7635174197847147  1.0000
  C   C1831     1.0  0.6143359743886765  0.03218621781977585  0.7166341529097385  1.0000
  C   C1832     1.0  0.6038606542850784  0.03933527016693346  0.6939097069344062  1.0000
  C   C1833     1.0  0.6005006246872443  0.05287892411374334  0.7058463847443396  1.0000
  C   C1834     1.0  0.6075676552337426  0.05988705441883274  0.7418925437759306  1.0000
  C   C1835     1.0  0.6187777819762212  0.052977722414772235  0.7634680801067284  1.0000
  C   C1836     1.0  0.6219343804064174  0.03947084238548164  0.7510767724067798  1.0000
  C   C1837     1.0  0.6137309825874832  0.08511775820146442  0.7778964116549621  1.0000
  C   C1838     1.0  0.6115948062729595  0.09495062478170652  0.8121769150671918  1.0000
  C   C1839     1.0  0.6207998822259546  0.10556430850460138  0.8199584871381493  1.0000
  C   C1840     1.0  0.6329163931967232  0.10679659932093108  0.7935476623647094  1.0000
  C   C1841     1.0  0.6354646333261877  0.09679500610820695  0.7587455680709119  1.0000
  C   C1842     1.0  0.6257885595508109  0.08638493492126209  0.7510309569915071  1.0000
  C   C1843     1.0  0.5960944176520788  0.08568570882833229  0.6829245800570628  1.0000
  C   C1844     1.0  0.5879299897060942  0.0948173555724661  0.6558970093087961  1.0000
  C   C1845     1.0  0.5768647905627596  0.10239818481640729  0.6744593010197258  1.0000
  C   C1846     1.0  0.5738603287490665  0.10078834015946882  0.7217478581067309  1.0000
  C   C1847     1.0  0.581835322887449  0.09183554285773482  0.7488141957448439  1.0000
  C   C1848     1.0  0.5927276818980136  0.08385264399281314  0.7298430895591718  1.0000
  H   H1153     1.0  0.5635182048867327  0.044604326830491106  0.011318980284174005  1.0000
  H   H1154     1.0  0.5680427997924592  0.03282367322839978  0.8663800755976836  1.0000
  H   H1155     1.0  0.5698919474161405  0.009063708152522887  0.8903274407345294  1.0000
  H   H1156     1.0  0.567151529907342  0.021685762899412445  0.0354033335126858  1.0000
  H   H1157     1.0  0.5862959532903287  0.05809581402374102  0.9891935826306208  1.0000
  H   H1158     1.0  0.5906149858809449  0.07225587476894117  0.054742372725626  1.0000
  H   H1159     1.0  0.5522492524776079  0.09513029949881117  0.022945311519574546  1.0000
  H   H1160     1.0  0.5487259630687787  0.08159965121809697  0.9573025293380057  1.0000
  H   H1161     1.0  0.5593989220007832  0.05613256514432471  0.8258827727591997  1.0000
  H   H1162     1.0  0.5740013446891459  0.06264647982530155  0.7612865614871982  1.0000
  H   H1163     1.0  0.6081332493619852  0.06923013552397607  0.8579359421366264  1.0000
  H   H1164     1.0  0.5937060423524985  0.060911062043418736  0.9205656148146087  1.0000
  H   H1165     1.0  0.5974654274473618  0.034062119012226166  0.6675764159406589  1.0000
  H   H1166     1.0  0.5915084268284039  0.05771044269305899  0.689285874254562  1.0000
  H   H1167     1.0  0.6244485302903331  0.05755745135499071  0.7927265091525115  1.0000
  H   H1168     1.0  0.6306089720436324  0.03461318255433089  0.7682117377188248  1.0000
  H   H1169     1.0  0.6018635552952004  0.09452839010168042  0.8327374637365603  1.0000
  H   H1170     1.0  0.6182568265536383  0.11261073909419239  0.848927926641442  1.0000
  H   H1171     1.0  0.6446003033094578  0.09766482432314542  0.7350061344341503  1.0000
  H   H1172     1.0  0.6280480660529938  0.07982391178859999  0.7213460921574153  1.0000
  H   H1173     1.0  0.604693032069924  0.08012326843984506  0.6653244120668628  1.0000
  H   H1174     1.0  0.5906688197257731  0.09610609147832178  0.619491375480449  1.0000
  H   H1175     1.0  0.565316075094719  0.10688710074327985  0.736169141129538  1.0000
  H   H1176     1.0  0.5794577464060869  0.09036426162856692  0.786076225412522  1.0000
  C   C1849     1.0  0.41251155010649393  0.1160264194097457  0.5653974670940694  1.0000
  C   C1850     1.0  0.4248323380809807  0.1170769885659144  0.5381760618965715  1.0000
  C   C1851     1.0  0.4284793345720266  0.1067283207074243  0.5082480229352623  1.0000
  C   C1852     1.0  0.4209727139750763  0.09431330637232965  0.506757259807538  1.0000
  C   C1853     1.0  0.40810661123792125  0.09356266577391217  0.5308914108681888  1.0000
  C   C1854     1.0  0.40397160428780227  0.10439223934964062  0.5585110577522892  1.0000
  H   H1177     1.0  0.4316715481325063  0.1261067131569187  0.5407135310501445  1.0000
  H   H1178     1.0  0.4376902187462769  0.10787225212134664  0.487535930969222  1.0000
  H   H1179     1.0  0.401856203009806  0.08430253596677975  0.5307363433088037  1.0000
  H   H1180     1.0  0.39511871127196485  0.1030851802494965  0.5814152411259995  1.0000
  C   C1855     1.0  0.4234876568131295  0.06428136122404926  0.5429056224578147  1.0000
  C   C1856     1.0  0.4221861416183646  0.06653488716035658  0.4945633108195341  1.0000
  C   C1857     1.0  0.41981996517022696  0.05493216816011098  0.4662846268080474  1.0000
  C   C1858     1.0  0.4180465910767264  0.041971298863996954  0.48581609076513355  1.0000
  C   C1859     1.0  0.42002613632548114  0.040070939746193364  0.5338447430219307  1.0000
  C   C1860     1.0  0.42280975783296304  0.05113349178718575  0.5621692424486903  1.0000
  C   C1861     1.0  0.4259736139012449  0.08149880708060414  0.47494726455732883  1.0000
  C   C1862     1.0  0.4426512433429157  0.07938641583039471  0.4690617458261246  1.0000
  C   C1863     1.0  0.4486871270455731  0.07338328093083944  0.4289521118861034  1.0000
  C   C1864     1.0  0.4627141771329992  0.07136505166487224  0.4249203553420928  1.0000
  C   C1865     1.0  0.47156228659816946  0.07550866413071641  0.46005373033094016  1.0000
  C   C1866     1.0  0.4659334690454044  0.08107940879705605  0.5010268086357189  1.0000
  C   C1867     1.0  0.4515834060846677  0.08301051824557884  0.5055167193324579  1.0000
  C   C1868     1.0  0.4041420894882161  0.07994833099731671  0.4228163705022551  1.0000
  C   C1869     1.0  0.3976913027155334  0.08025030454087707  0.3797322588322122  1.0000
  C   C1870     1.0  0.4048676148582621  0.08497814526318553  0.34003355392456125  1.0000
  C   C1871     1.0  0.4181886044273617  0.09033318947826108  0.34653229436787897  1.0000
  C   C1872     1.0  0.42370365599025267  0.09175050075504022  0.39005834858216926  1.0000
  C   C1873     1.0  0.4176510229586658  0.08488824423694807  0.4280886675213459  1.0000
  C   C1874     1.0  0.39895016029420505  0.08124974834516091  0.28954743327778276  1.0000
  C   C1875     1.0  0.4072485032090202  0.03575452511662136  0.29518131965125766  1.0000
  C   C1876     1.0  0.3939674905147244  0.040762915533837346  0.30364342685215256  1.0000
  C   C1877     1.0  0.3915365655440028  0.05498296013988921  0.30249381235507544  1.0000
  C   C1878     1.0  0.4018079654646985  0.06465207689710359  0.28976311815583644  1.0000
  C   C1879     1.0  0.4151396633490177  0.059306521939534285  0.28309239369210987  1.0000
  C   C1880     1.0  0.41800709662421076  0.04507830008423425  0.2855502145083625  1.0000
  C   C1881     1.0  0.4061594912637043  0.08951296480297231  0.24682455853585258  1.0000
  C   C1882     1.0  0.4078332053130017  0.10414020672810732  0.24928555118854712  1.0000
  C   C1883     1.0  0.4143266042051167  0.11149131970099672  0.2134163101451636  1.0000
  C   C1884     1.0  0.4188733588289764  0.10469499497560514  0.17358685509084942  1.0000
  C   C1885     1.0  0.41696187121746753  0.09028272092438197  0.17030541407849956  1.0000
  C   C1886     1.0  0.4102171190441569  0.08317670847775196  0.2047970208272557  1.0000
  C   C1887     1.0  0.3746093168277119  0.08015940789945393  0.2480562883541495  1.0000
  C   C1888     1.0  0.36070937713950046  0.08382284922363108  0.24436990955604193  1.0000
  C   C1889     1.0  0.35481978229235017  0.09361069550610569  0.27339890909918935  1.0000
  C   C1890     1.0  0.3634264795121035  0.10030082977136662  0.30500203012812815  1.0000
  C   C1891     1.0  0.37729906365168786  0.09666264322967237  0.3086154566880705  1.0000
  C   C1892     1.0  0.3830404948515098  0.08592489027874313  0.2827452538148502  1.0000
  H   H1181     1.0  0.42615001208887254  0.07296424332946307  0.56722655944227  1.0000
  H   H1182     1.0  0.4196791187262269  0.05605001865125732  0.4278736874958348  1.0000
  H   H1183     1.0  0.4161426183745706  0.03252554604535467  0.46406081703595764  1.0000
  H   H1184     1.0  0.425139349325712  0.049554561673599486  0.5990083605907729  1.0000
  H   H1185     1.0  0.4424197417040297  0.06892037943175319  0.3989853060349479  1.0000
  H   H1186     1.0  0.46604590514813704  0.06628229257235484  0.3931350299308766  1.0000
  H   H1187     1.0  0.4726939764710889  0.08355269569960508  0.5307856829867899  1.0000
  H   H1188     1.0  0.4478949676964433  0.08717501887423548  0.5384298088119288  1.0000
  H   H1189     1.0  0.39861583941783174  0.07532283956467213  0.451109151564595  1.0000
  H   H1190     1.0  0.3871493109323207  0.0763652821281422  0.37904150334040615  1.0000
  H   H1191     1.0  0.4245384142636077  0.09394746309398419  0.3173404738873773  1.0000
  H   H1192     1.0  0.43454092158577756  0.09524134041507458  0.39234559508309835  1.0000
  H   H1193     1.0  0.38526150096393436  0.03363422509525542  0.3124833350159128  1.0000
  H   H1194     1.0  0.3812311401232266  0.05866286887558265  0.30981758269957577  1.0000
  H   H1195     1.0  0.42387151942568  0.06698078414419845  0.28117871903879016  1.0000
  H   H1196     1.0  0.42900735782432686  0.04151492847131851  0.2830987373649938  1.0000
  H   H1197     1.0  0.40471116121374  0.10995200022983583  0.27960971727883077  1.0000
  H   H1198     1.0  0.416274514277405  0.12265618462215039  0.21791608877749985  1.0000
  H   H1199     1.0  0.4201278601756234  0.08389730523354128  0.1403650401976938  1.0000
  H   H1200     1.0  0.4085276299859946  0.0720154184803289  0.20032402659154047  1.0000
  H   H1201     1.0  0.37873200913185806  0.0723019816002718  0.22430311009280612  1.0000
  H   H1202     1.0  0.3539060330578821  0.07819917189622519  0.21937865780351767  1.0000
  H   H1203     1.0  0.35932941111402594  0.10868267859468685  0.3277039208220953  1.0000
  H   H1204     1.0  0.38395316413262953  0.10208918095028764  0.33409411397384353  1.0000
  C   C1893     1.0  0.41986238871040044  0.10262938272126816  0.053052136328329266  1.0000
  C   C1894     1.0  0.4303610559284721  0.10588878178828508  0.0211682372890222  1.0000
  C   C1895     1.0  0.43359288388742284  0.09616591646148516  0.9865327642820824  1.0000
  C   C1896     1.0  0.42825924777178564  0.08263329581538768  0.9879354208419742  1.0000
  C   C1897     1.0  0.4173856988243338  0.07984275106127596  0.01975620619031304  1.0000
  C   C1898     1.0  0.41271068017520235  0.08991216693553308  0.04989792119992939  1.0000
  H   H1205     1.0  0.43472432591151433  0.11640087598060311  0.021327287265273245  1.0000
  H   H1206     1.0  0.44066201955933665  0.09948836223154689  0.9608267920513017  1.0000
  H   H1207     1.0  0.4115264568646014  0.06999823430107908  0.01783798523809319  1.0000
  H   H1208     1.0  0.40400176623962114  0.08795170169572797  0.07297655557794792  1.0000
  C   C1899     1.0  0.4352602122608812  0.05085697075936289  0.0038051758399457736  1.0000
  C   C1900     1.0  0.43249108750272447  0.05575075468063197  0.9592725921947383  1.0000
  C   C1901     1.0  0.43021343252912125  0.04594997320465101  0.9226907452307263  1.0000
  C   C1902     1.0  0.43104360372390044  0.031811659904623674  0.9320053715819674  1.0000
  C   C1903     1.0  0.43337879932124307  0.027168675050181845  0.976238392896545  1.0000
  C   C1904     1.0  0.4352460424306664  0.03669930397668779  0.012898378619137585  1.0000
  C   C1905     1.0  0.4335765099857503  0.07213390160272462  0.9492636860889776  1.0000
  C   C1906     1.0  0.4502582918069384  0.07302773441509712  0.9420248504758678  1.0000
  C   C1907     1.0  0.4564079257578057  0.06866453759165346  0.9005830452302207  1.0000
  C   C1908     1.0  0.47085489240730793  0.06709089759788155  0.8954622915078018  1.0000
  C   C1909     1.0  0.4795249283542731  0.0704921562645062  0.9320617597853801  1.0000
  C   C1910     1.0  0.47411288803400775  0.07503483223763412  0.9745150284297431  1.0000
  C   C1911     1.0  0.4595950922876822  0.07608159189380151  0.979251637516413  1.0000
  C   C1912     1.0  0.4097970911106061  0.07196196637467261  0.9058024783086119  1.0000
  C   C1913     1.0  0.40134441084110506  0.07384444910545979  0.8679977121830864  1.0000
  C   C1914     1.0  0.406134437525443  0.08108720172354629  0.829185006921558  1.0000
  C   C1915     1.0  0.41963487873116057  0.08722239568342058  0.8320608052956076  1.0000
  C   C1916     1.0  0.42800300623584026  0.08529933687691096  0.8705633754383659  1.0000
  C   C1917     1.0  0.4236487112005386  0.07665954406849822  0.9067399321903488  1.0000
  C   C1918     1.0  0.39800932552754953  0.08051320301827827  0.7804761719610948  1.0000
  C   C1919     1.0  0.40962287432766875  0.03683053558681404  0.7568318934175923  1.0000
  C   C1920     1.0  0.39642606972791666  0.04026391624245278  0.7711650698725667  1.0000
  C   C1921     1.0  0.3924345570992825  0.054044937246102084  0.7756585048320191  1.0000
  C   C1922     1.0  0.4018046780947291  0.06493386625623664  0.7653500363956285  1.0000
  C   C1923     1.0  0.41541322232023115  0.06127811885213531  0.7523102643564334  1.0000
  C   C1924     1.0  0.4195309128611061  0.04735745912557532  0.7483701386429686  1.0000
  C   C1925     1.0  0.4026563903740277  0.09198416918074721  0.7426537845220026  1.0000
  C   C1926     1.0  0.40270467791863446  0.10623083438170076  0.7566592045446406  1.0000
  C   C1927     1.0  0.4067794788275523  0.11643069646601173  0.7254800523201114  1.0000
  C   C1928     1.0  0.41242990625509707  0.11275931374272583  0.6826250177264326  1.0000
  C   C1929     1.0  0.41256541802136093  0.09866776018628075  0.6695288574838248  1.0000
  C   C1930     1.0  0.406339197282105  0.08887587316922164  0.6973282417663034  1.0000
  C   C1931     1.0  0.3720834977047875  0.08009729742887566  0.7509498989491012  1.0000
  C   C1932     1.0  0.35802218406864555  0.08281609303382635  0.7556547896713514  1.0000
  C   C1933     1.0  0.35294332960854535  0.08978812857999849  0.7942525149073686  1.0000
  C   C1934     1.0  0.3623543897452412  0.0958414395284797  0.8254140458183313  1.0000
  C   C1935     1.0  0.3765145643379806  0.0926043832942698  0.8216783273422378  1.0000
  C   C1936     1.0  0.3816994133110877  0.08418709668230726  0.785420712547849  1.0000
  H   H1209     1.0  0.4373073466676491  0.05808264569373164  0.03300574234620343  1.0000
  H   H1210     1.0  0.42825641785589624  0.04943118375221891  0.8865036156906034  1.0000
  H   H1211     1.0  0.429934937457466  0.024303830301081946  0.9040403469519641  1.0000
  H   H1212     1.0  0.4375363448641963  0.0327340896947941  0.04830565930606228  1.0000
  H   H1213     1.0  0.4498809693780435  0.06512524732026143  0.8724136133628462  1.0000
  H   H1214     1.0  0.47515865493047416  0.0635190017914893  0.862158008867155  1.0000
  H   H1215     1.0  0.4807958283792054  0.07688242878356707  0.005496821942327923  1.0000
  H   H1216     1.0  0.45569183189975165  0.07764358473471521  0.015069394935782158  1.0000
  H   H1217     1.0  0.40581172071868604  0.06605001986413907  0.9360899920666774  1.0000
  H   H1218     1.0  0.39088266547672607  0.06947628257206646  0.8656188348516115  1.0000
  H   H1219     1.0  0.42397425693416374  0.09299797103100088  0.8023759404615157  1.0000
  H   H1220     1.0  0.43835028342080457  0.08967243835018213  0.8684241479713952  1.0000
  H   H1221     1.0  0.3888597896457508  0.03199733173375687  0.7788761566892584  1.0000
  H   H1222     1.0  0.3820654200204697  0.05565408590104532  0.7900198753887001  1.0000
  H   H1223     1.0  0.4233079374141223  0.06940150609943893  0.7474432575493718  1.0000
  H   H1224     1.0  0.42998316245428464  0.04491058518263451  0.7370114399180158  1.0000
  H   H1225     1.0  0.39961437175322784  0.10920217935504838  0.7917291428046487  1.0000
  H   H1226     1.0  0.406585161423383  0.1269955769045106  0.7364087909940421  1.0000
  H   H1227     1.0  0.4167077687553025  0.09508783239161382  0.6363620210889966  1.0000
  H   H1228     1.0  0.40571500268709404  0.07814297524782171  0.6828858131672165  1.0000
  H   H1229     1.0  0.3755646194376452  0.07451420862572777  0.7214130531489679  1.0000
  H   H1230     1.0  0.35101527598845617  0.07888488192474204  0.728940878304568  1.0000
  H   H1231     1.0  0.3587103687045711  0.10211661434140439  0.8550249011354439  1.0000
  H   H1232     1.0  0.38298205550741715  0.09637569713546729  0.8488997325397356  1.0000
  C   C1937     1.0  0.49987656265273783  0.932910898234099  0.11381359734199342  1.0000
  C   C1938     1.0  0.5091741700801677  0.9222730163335602  0.10418566403554023  1.0000
  C   C1939     1.0  0.523393465662344  0.925028838121746  0.1053285824334621  1.0000
  C   C1940     1.0  0.5286922235875342  0.938501257826922  0.11301147514844727  1.0000
  C   C1941     1.0  0.5189996288784358  0.948628310461293  0.12582675165280535  1.0000
  C   C1942     1.0  0.5048370044876563  0.9459029309653074  0.12799734505792432  1.0000
  H   H1233     1.0  0.5057489895409698  0.9119899749562443  0.0955254932701581  1.0000
  H   H1234     1.0  0.5308307983217058  0.9167669388345578  0.09641572203153664  1.0000
  H   H1235     1.0  0.5225677573425267  0.9591188510958008  0.13392409766287414  1.0000
  H   H1236     1.0  0.497660645670772  0.9539786108408881  0.1384051977028299  1.0000
  C   C1943     1.0  0.5385208403706881  0.9607121393362847  0.04328922375995683  1.0000
  C   C1944     1.0  0.5473653558069183  0.9567938610872531  0.08014737292069121  1.0000
  C   C1945     1.0  0.5587711845117459  0.9655334610670487  0.09045795591470984  1.0000
  C   C1946     1.0  0.5610676434479047  0.9777754460937501  0.0655121671511871  1.0000
  C   C1947     1.0  0.5526723330870497  0.9807369771468437  0.028180357081785755  1.0000
  C   C1948     1.0  0.5417425154307597  0.9720302306623856  0.01567391171899381  1.0000
  C   C1949     1.0  0.5448511952372551  0.9422818569863193  0.10769371514035501  1.0000
  C   C1950     1.0  0.5540653968367013  0.9326836938694383  0.07296704006862202  1.0000
  C   C1951     1.0  0.5686623651958286  0.931712284100226  0.07903828744481696  1.0000
  C   C1952     1.0  0.5769210585959894  0.925721470535061  0.04491003218180163  1.0000
  C   C1953     1.0  0.5712804713797057  0.9214952615412313  0.0028818190090622586  1.0000
  C   C1954     1.0  0.5570032553298508  0.921666482641114  0.9971795619389494  1.0000
  C   C1955     1.0  0.54849791912279  0.9270987421933503  0.03217299430967874  1.0000
  C   C1956     1.0  0.5493505431798495  0.9538831789954331  0.19027635359593373  1.0000
  C   C1957     1.0  0.5566850885447495  0.9543593188755297  0.23219428673414708  1.0000
  C   C1958     1.0  0.565597990714331  0.9435209598753109  0.24481044239520394  1.0000
  C   C1959     1.0  0.5647593378790269  0.9312415358223575  0.21893178129147176  1.0000
  C   C1960     1.0  0.5561266243631933  0.9301414034016464  0.1805641904106327  1.0000
  C   C1961     1.0  0.5500450641942334  0.9421829389609259  0.16175520030977225  1.0000
  C   C1962     1.0  0.576702684789512  0.9459173682138103  0.28592131937207255  1.0000
  C   C1963     1.0  0.5889408990163921  0.9898064943383055  0.3090285002780687  1.0000
  C   C1964     1.0  0.587938950583059  0.9809440769652292  0.34699784947230533  1.0000
  C   C1965     1.0  0.5848269857052719  0.9671338120772219  0.33900482163855017  1.0000
  C   C1966     1.0  0.5814004970922249  0.9617754303303765  0.29499770556389493  1.0000
  C   C1967     1.0  0.5829162322624194  0.9711625250245095  0.2577353234699455  1.0000
  C   C1968     1.0  0.5869257468212659  0.9849042665691031  0.26466296668547135  1.0000
  C   C1969     1.0  0.5920344970342907  0.9396944147517904  0.2766708346022133  1.0000
  C   C1970     1.0  0.5972890310033543  0.9375421766724269  0.23163392896273302  1.0000
  C   C1971     1.0  0.6099031068590232  0.9307286319093965  0.22542911202970417  1.0000
  C   C1972     1.0  0.6172457286760127  0.9260167485260241  0.2635521190782405  1.0000
  C   C1973     1.0  0.6124986787117475  0.9286777393984537  0.30870603023980214  1.0000
  C   C1974     1.0  0.600069696029689  0.9356830725688206  0.3144178028192409  1.0000
  C   C1975     1.0  0.5683893977681784  0.9242970041881271  0.3329388606564252  1.0000
  C   C1976     1.0  0.5599988922796328  0.9173804530037594  0.3649338796990825  1.0000
  C   C1977     1.0  0.5518990503966005  0.9252761726847244  0.39616237160159784  1.0000
  C   C1978     1.0  0.5512996353352491  0.9395513723972264  0.3920460327524682  1.0000
  C   C1979     1.0  0.5589892192557073  0.9460850767691302  0.35681397840764856  1.0000
  C   C1980     1.0  0.5679993031534651  0.9387197185765525  0.3276499996025819  1.0000
  H   H1237     1.0  0.5296475959433672  0.9546671097880657  0.032839150447745935  1.0000
  H   H1238     1.0  0.566064927708897  0.9623164116083406  0.11610894964716309  1.0000
  H   H1239     1.0  0.5690409742532382  0.9850940748143275  0.07669888185573111  1.0000
  H   H1240     1.0  0.5349393170087118  0.9749208519300964  0.9868041325110062  1.0000
  H   H1241     1.0  0.5739128610889349  0.9357290588144406  0.10988087258022648  1.0000
  H   H1242     1.0  0.5882248778760102  0.9251774511715534  0.05249248340945787  1.0000
  H   H1243     1.0  0.5527635251643745  0.9180882442494115  0.9633995038320078  1.0000
  H   H1244     1.0  0.5374309613047771  0.9283794054081567  0.025573530438015007  1.0000
  H   H1245     1.0  0.5433796567751022  0.9631391885714443  0.17900540901254192  1.0000
  H   H1246     1.0  0.5562434484003903  0.9642295657261092  0.25202355089050676  1.0000
  H   H1247     1.0  0.5700707214754362  0.9217676866627809  0.22798596462820037  1.0000
  H   H1248     1.0  0.5555475758837  0.9204202188201447  0.1611021544289985  1.0000
  H   H1249     1.0  0.5906258059838766  0.9844608086119921  0.381945495816162  1.0000
  H   H1250     1.0  0.5849887455464564  0.960213191688513  0.36815153155632163  1.0000
  H   H1251     1.0  0.5813302372265011  0.9674840228987883  0.22204546739866873  1.0000
  H   H1252     1.0  0.587850540110177  0.9918846403968673  0.23541229101765762  1.0000
  H   H1253     1.0  0.5915213804851212  0.9413670790958925  0.20117866029951473  1.0000
  H   H1254     1.0  0.6140733473956493  0.9285383854393482  0.18934171912436762  1.0000
  H   H1255     1.0  0.6186848344100223  0.9255877438449055  0.3380197902101839  1.0000
  H   H1256     1.0  0.5962094913539888  0.9373442420410181  0.349168090451153  1.0000
  H   H1257     1.0  0.5753186326908494  0.9182283732152151  0.3111501064314729  1.0000
  H   H1258     1.0  0.5601908605209751  0.906037734455132  0.3683277446919864  1.0000
  H   H1259     1.0  0.5446093245298509  0.9458940787336891  0.4148021970922201  1.0000
  H   H1260     1.0  0.5575324688562124  0.9572813384664813  0.35138167986137414  1.0000
  C   C1981     1.0  0.5158080156846988  0.964685210312659  0.6646230837869169  1.0000
  C   C1982     1.0  0.5244539519387913  0.9550578503688084  0.6854831947869156  1.0000
  C   C1983     1.0  0.5382764108417292  0.9534450691383168  0.6705931848232403  1.0000
  C   C1984     1.0  0.5441356336471631  0.962092679310074  0.6365311856992348  1.0000
  C   C1985     1.0  0.5354003037417072  0.9723763484750323  0.6179829910391583  1.0000
  C   C1986     1.0  0.5214009197442004  0.973605882906727  0.6316395090531801  1.0000
  H   H1261     1.0  0.5206272763405995  0.9473418919069528  0.7105442269411631  1.0000
  H   H1262     1.0  0.5447469572740453  0.9450319090546565  0.6836717237522816  1.0000
  H   H1263     1.0  0.5390529664830835  0.9795957245057473  0.5915193023250189  1.0000
  H   H1264     1.0  0.51487693434929  0.9810429035131453  0.6132675275287683  1.0000
  C   C1987     1.0  0.5632287148499141  0.9779423128697668  0.5483365112990037  1.0000
  C   C1988     1.0  0.5655477620663903  0.974594631951789  0.5949025945297831  1.0000
  C   C1989     1.0  0.5705724894463626  0.9851740000110648  0.6246544203554275  1.0000
  C   C1990     1.0  0.5745685890991447  0.9979249572809344  0.6069802428482484  1.0000
  C   C1991     1.0  0.5730873059675765  0.0008946336007051858  0.5591736191423888  1.0000
  C   C1992     1.0  0.5671235962219612  0.990692097967094  0.5302817134187886  1.0000
  C   C1993     1.0  0.5596532759374903  0.9593679726640344  0.614871067063318  1.0000
  C   C1994     1.0  0.5588109776494118  0.9463261909768858  0.5766257680986303  1.0000
  C   C1995     1.0  0.5684671497777205  0.9446140721238339  0.540015727032912  1.0000
  C   C1996     1.0  0.5682427964094766  0.9331964369940298  0.5096506794951541  1.0000
  C   C1997     1.0  0.5575055227099356  0.9236291078939235  0.5118321981146843  1.0000
  C   C1998     1.0  0.5477150629774707  0.9251309440315657  0.5468880393238391  1.0000
  C   C1999     1.0  0.5483998397720771  0.9359923135793681  0.5794099356421342  1.0000
  C   C2000     1.0  0.5701946387754231  0.9570921944724301  0.7000842152081007  1.0000
  C   C2001     1.0  0.5809740259451392  0.9548744453699072  0.7312915615343364  1.0000
  C   C2002     1.0  0.5937479940794242  0.9493404466438662  0.7182764593341345  1.0000
  C   C2003     1.0  0.5955577530919958  0.9470802692522537  0.6703006710180367  1.0000
  C   C2004     1.0  0.5850451806046569  0.9501580554312213  0.638913587293423  1.0000
  C   C2005     1.0  0.5719211054470326  0.9548636095404058  0.6524960957904655  1.0000
  C   C2006     1.0  0.6064620342508602  0.9483569637696977  0.7550803348490841  1.0000
  C   C2007     1.0  0.6198659022392898  0.9923311780196649  0.749434465982384  1.0000
  C   C2008     1.0  0.6089879767361249  0.9882520070213083  0.7785448759942086  1.0000
  C   C2009     1.0  0.6050413542876999  0.9743255306012141  0.7809343261138232  1.0000
  C   C2010     1.0  0.611470208159529  0.9642575333981268  0.7529058647549804  1.0000
  C   C2011     1.0  0.6218412940148595  0.9688665797689806  0.7211205393437643  1.0000
  C   C2012     1.0  0.6259541520765988  0.9826781021694128  0.7200421149534958  1.0000
  C   C2013     1.0  0.6179327605131811  0.9368349542084233  0.7424987169626176  1.0000
  C   C2014     1.0  0.6138553402164177  0.9241413085966592  0.7233831160057003  1.0000
  C   C2015     1.0  0.6231953433451595  0.9132904743891151  0.7169125696640889  1.0000
  C   C2016     1.0  0.6369949037298571  0.914904156128708  0.7313444254750359  1.0000
  C   C2017     1.0  0.6413940445087849  0.9271804595658694  0.7508265497541359  1.0000
  C   C2018     1.0  0.6317784212384617  0.9379086812971664  0.7576319010535103  1.0000
  C   C2019     1.0  0.6087920447240733  0.9481847315729531  0.8483393747683216  1.0000
  C   C2020     1.0  0.6026811894260109  0.9458879845576067  0.8914798746417774  1.0000
  C   C2021     1.0  0.5912450560743779  0.9374517987018015  0.8949970888296466  1.0000
  C   C2022     1.0  0.5850867882223407  0.9318587768259318  0.8551940657456821  1.0000
  C   C2023     1.0  0.5909305222776379  0.9344912118756815  0.8121804393299051  1.0000
  C   C2024     1.0  0.6024381386978329  0.9432017292595494  0.8071830348024515  1.0000
  H   H1265     1.0  0.5575838971431116  0.9708255584398884  0.5256966476287905  1.0000
  H   H1266     1.0  0.5708672237590087  0.9839609685626781  0.6619516926502386  1.0000
  H   H1267     1.0  0.5785156200681444  0.005692404338017765  0.6307831132138492  1.0000
  H   H1268     1.0  0.565075985375906  0.9933330145433007  0.4940240986243998  1.0000
  H   H1269     1.0  0.5764327517373947  0.9523277586882045  0.5338482672846441  1.0000
  H   H1270     1.0  0.5756364720140774  0.932288390709053  0.4814248594243668  1.0000
  H   H1271     1.0  0.5393353559561364  0.9178438547088354  0.5488792477568513  1.0000
  H   H1272     1.0  0.5402470804141076  0.9356495955976301  0.6061555653733371  1.0000
  H   H1273     1.0  0.5607273109797566  0.9614039912178962  0.7156050681974562  1.0000
  H   H1274     1.0  0.5787781686956608  0.957468606442585  0.7676549042101241  1.0000
  H   H1275     1.0  0.6055751999271011  0.9435611234595084  0.6570459189533306  1.0000
  H   H1276     1.0  0.5874971627608058  0.9483504093607831  0.6020638963632006  1.0000
  H   H1277     1.0  0.6033537796085767  0.995954463485792  0.7992358223839691  1.0000
  H   H1278     1.0  0.5966415824154028  0.9719719953814892  0.8041874114961499  1.0000
  H   H1279     1.0  0.62632434895904  0.9612942115169965  0.6972683293001773  1.0000
  H   H1280     1.0  0.6332836822222019  0.9864050186084237  0.6947097145703244  1.0000
  H   H1281     1.0  0.6030196817430091  0.9223331462575622  0.7140861109680257  1.0000
  H   H1282     1.0  0.6195076156237438  0.9035691726708622  0.7003273893353182  1.0000
  H   H1283     1.0  0.6522862747757748  0.9284848159964826  0.7623262189876205  1.0000
  H   H1284     1.0  0.6357297593811273  0.9471453253971119  0.7740091498821966  1.0000
  H   H1285     1.0  0.6176891183914943  0.9556381788435101  0.8450618104449563  1.0000
  H   H1286     1.0  0.6062785842875753  0.9511416578807286  0.923092511180042  1.0000
  H   H1287     1.0  0.5761219335916677  0.9247685114852434  0.8592857347558188  1.0000
  H   H1288     1.0  0.5853969389557071  0.9298872553354233  0.781956362300679  1.0000
  C   C2025     1.0  0.39165979820354196  0.9187396109541401  0.9893134075628729  1.0000
  C   C2026     1.0  0.4037622064698417  0.9143231833908917  0.012750958709840415  1.0000
  C   C2027     1.0  0.41073607983863203  0.9235219507409096  0.04172268898389678  1.0000
  C   C2028     1.0  0.40702286268178145  0.9375620601145604  0.04365891891858157  1.0000
  C   C2029     1.0  0.3940880721482895  0.9414209881185356  0.024342223531243663  1.0000
  C   C2030     1.0  0.38622205639791646  0.9318004272130207  0.998888829354898  1.0000
  H   H1289     1.0  0.4067351765786053  0.9038088034342127  0.008773017657461876  1.0000
  H   H1290     1.0  0.4198471425403106  0.9195485790126601  0.06068745149668495  1.0000
  H   H1291     1.0  0.39040102622049466  0.9518783368349968  0.027113492273216803  1.0000
  H   H1292     1.0  0.37678162869786996  0.935292920600775  0.981669281737734  1.0000
  C   C2031     1.0  0.4169928075365386  0.9650827947481208  0.998353141422477  1.0000
  C   C2032     1.0  0.41690513166965354  0.9634793594790831  0.04723992226156158  1.0000
  C   C2033     1.0  0.4171432566571309  0.9752528232145881  0.07514644413052425  1.0000
  C   C2034     1.0  0.41772938280245236  0.9883786401294401  0.055479648485247515  1.0000
  C   C2035     1.0  0.4177981342220849  0.990039995288204  0.007304768714248677  1.0000
  C   C2036     1.0  0.4173176282736374  0.9783651945023177  0.9796040637877426  1.0000
  C   C2037     1.0  0.4166139724746984  0.9486200129634621  0.07106111879327158  1.0000
  C   C2038     1.0  0.4331418735319374  0.9454194860287238  0.07000172542165482  1.0000
  C   C2039     1.0  0.4421750197436636  0.9514309493629215  0.10311675515459756  1.0000
  C   C2040     1.0  0.4564735864019924  0.9492834576379824  0.101881148647316  1.0000
  C   C2041     1.0  0.46233595486956797  0.9414996610536134  0.06646054624733504  1.0000
  C   C2042     1.0  0.45389574667337795  0.9363740318887387  0.031852568343785866  1.0000
  C   C2043     1.0  0.4395410355763832  0.938408158726149  0.03282868338748745  1.0000
  C   C2044     1.0  0.396824753986283  0.9548662860511412  0.12964247089249087  1.0000
  C   C2045     1.0  0.3909076308906223  0.9555433189140284  0.1732700238729241  1.0000
  C   C2046     1.0  0.39742304229464614  0.9498677756970078  0.21224590249807804  1.0000
  C   C2047     1.0  0.40965519560015584  0.9424967446928006  0.2044290877999876  1.0000
  C   C2048     1.0  0.4152717661383873  0.941356841795746  0.15985491785476308  1.0000
  C   C2049     1.0  0.40947305530954625  0.94818336906073  0.12194230929021055  1.0000
  C   C2050     1.0  0.3917816077506862  0.9537308266737349  0.2639524753224709  1.0000
  C   C2051     1.0  0.4067491537337042  0.9972449620448129  0.25302373664854017  1.0000
  C   C2052     1.0  0.39285250075626593  0.9940658467522733  0.24358787565996157  1.0000
  C   C2053     1.0  0.3881230870366225  0.980620527959087  0.24833294297714323  1.0000
  C   C2054     1.0  0.39708059337033763  0.9700200070935222  0.263380487484103  1.0000
  C   C2055     1.0  0.4110638502894158  0.9735738037376432  0.27027324049876716  1.0000
  C   C2056     1.0  0.41578245123338214  0.9869882293192405  0.26729946762128803  1.0000
  C   C2057     1.0  0.3972004936640097  0.9439202729813687  0.3053650291875976  1.0000
  C   C2058     1.0  0.3957548086978019  0.9294536361329426  0.3045819380127032  1.0000
  C   C2059     1.0  0.3994204045965465  0.92161520184093  0.34335376182675736  1.0000
  C   C2060     1.0  0.404002425897183  0.9279617142697792  0.38433847019848993  1.0000
  C   C2061     1.0  0.40532748081217396  0.942296409063387  0.38579751496179443  1.0000
  C   C2062     1.0  0.4016195491693165  0.9501004195864348  0.34761177603696153  1.0000
  C   C2063     1.0  0.36798146398268244  0.9582742450729114  0.3015732749343625  1.0000
  C   C2064     1.0  0.3536393095058911  0.9564781227336091  0.3067807255195286  1.0000
  C   C2065     1.0  0.3465079307191853  0.9471324990596306  0.2777756909628316  1.0000
  C   C2066     1.0  0.35425712769830525  0.9386402495968179  0.2474501151674626  1.0000
  C   C2067     1.0  0.3684396336321597  0.9403413827949776  0.24366435216084006  1.0000
  C   C2068     1.0  0.3754649338092214  0.9509955960491621  0.26809242673177963  1.0000
  H   H1293     1.0  0.4165911050141253  0.9565623060676011  0.9747546782942473  1.0000
  H   H1294     1.0  0.4174657086900852  0.9741825810869383  0.11287402890262874  1.0000
  H   H1295     1.0  0.4179111161560114  0.9971269442818352  0.07971071677051382  1.0000
  H   H1296     1.0  0.4171111910419269  0.979419615402571  0.9416054632129857  1.0000
  H   H1297     1.0  0.4382600076837307  0.9584554001740629  0.12899294927443042  1.0000
  H   H1298     1.0  0.46305454193969847  0.954593096928654  0.12817285334104644  1.0000
  H   H1299     1.0  0.45842008996353023  0.9306512360296224  0.0033611187380704344  1.0000
  H   H1300     1.0  0.4336399915496572  0.9347078536557342  0.0017716762543740217  1.0000
  H   H1301     1.0  0.39083662583732365  0.9596631927721004  0.10142863331492881  1.0000
  H   H1302     1.0  0.38167557538532304  0.9620099997552891  0.17722706604741278  1.0000
  H   H1303     1.0  0.41592550796235567  0.9379432309730268  0.23279411624795007  1.0000
  H   H1304     1.0  0.4244015345418222  0.9348488863245741  0.15476271066032174  1.0000
  H   H1305     1.0  0.38559297153221783  0.002118846925875717  0.23254882756310466  1.0000
  H   H1306     1.0  0.37723217255674424  0.9782103815574377  0.23929109455991113  1.0000
  H   H1307     1.0  0.4184261785505302  0.9656873070458535  0.28047527620121626  1.0000
  H   H1308     1.0  0.4269200119994071  0.9897284767247646  0.2754105582559387  1.0000
  H   H1309     1.0  0.39210934098299244  0.923573227902938  0.27452949257761466  1.0000
  H   H1310     1.0  0.39794526645338624  0.9102330517103938  0.3415874013548534  1.0000
  H   H1311     1.0  0.4093529975116222  0.9474933643468435  0.417170501635555  1.0000
  H   H1312     1.0  0.40203805429960926  0.9612272759627034  0.3513450275291559  1.0000
  H   H1313     1.0  0.37340773540912514  0.9657201794515886  0.3236770982458834  1.0000
  H   H1314     1.0  0.3478158883914351  0.9624968763442631  0.3332581588582498  1.0000
  H   H1315     1.0  0.3491867126050722  0.9313251539294318  0.22450223093610736  1.0000
  H   H1316     1.0  0.3739809782956374  0.9333964735813338  0.22048774327939194  1.0000
  C   C2069     1.0  0.409509470767062  0.9322609979761596  0.506958142782196  1.0000
  C   C2070     1.0  0.4209542263530306  0.9274724793715617  0.5319240198431845  1.0000
  C   C2071     1.0  0.4274156439773669  0.9360337657130066  0.5649005460514946  1.0000
  C   C2072     1.0  0.4235466105573384  0.9499282869629739  0.5707191037911463  1.0000
  C   C2073     1.0  0.41238654133888786  0.9545776503577899  0.5435893294241941  1.0000
  C   C2074     1.0  0.4053351784567832  0.9459814594468801  0.5129529136575124  1.0000
  H   H1317     1.0  0.42391864891522635  0.9165295261166182  0.5292596772319327  1.0000
  H   H1318     1.0  0.4357708206565339  0.9317603031474483  0.5835368472794037  1.0000
  H   H1319     1.0  0.40888467042110443  0.965248725918838  0.5455946349080595  1.0000
  H   H1320     1.0  0.3968717190249233  0.95031089240692  0.49224787021689864  1.0000
  C   C2075     1.0  0.43580748496422345  0.979650368700943  0.5497321193334689  1.0000
  C   C2076     1.0  0.43212018636438304  0.9755838990544721  0.595388942784218  1.0000
  C   C2077     1.0  0.43048363014935914  0.9860992616759303  0.6283090807891154  1.0000
  C   C2078     1.0  0.4310211525548948  0.9999289140204616  0.6151988234956545  1.0000
  C   C2079     1.0  0.43352946048604957  0.003668269436974958  0.5699790086213541  1.0000
  C   C2080     1.0  0.43592714015292033  0.9934457122198221  0.537562840184458  1.0000
  C   C2081     1.0  0.4308628464262542  0.9599058922114125  0.6111247757990843  1.0000
  C   C2082     1.0  0.44719627701963244  0.9574809186557636  0.621073769438719  1.0000
  C   C2083     1.0  0.45318358230666794  0.9614061435108249  0.663956998134104  1.0000
  C   C2084     1.0  0.4674688672102547  0.9607257864107553  0.6715975996965297  1.0000
  C   C2085     1.0  0.4762705707541906  0.9563444583228734  0.6357065082243236  1.0000
  C   C2086     1.0  0.4704229604403233  0.953498541318484  0.5928021339526587  1.0000
  C   C2087     1.0  0.4561957944381431  0.9538035497793775  0.5856443563819547  1.0000
  C   C2088     1.0  0.4068784181697133  0.9636751200650834  0.6484220480938955  1.0000
  C   C2089     1.0  0.3969682694758986  0.961845476526538  0.6829104830062097  1.0000
  C   C2090     1.0  0.3995628757941186  0.95338182515383  0.7214518200388141  1.0000
  C   C2091     1.0  0.4123468386850688  0.9460969169498311  0.723700299649897  1.0000
  C   C2092     1.0  0.4222414363130319  0.9475866391995724  0.6889686906103653  1.0000
  C   C2093     1.0  0.41969057357140205  0.956736518986945  0.6511991671119726  1.0000
  C   C2094     1.0  0.39008003460214624  0.9551710752344955  0.766273393226512  1.0000
  C   C2095     1.0  0.40477321623401435  0.9981384214624918  0.7932375272459393  1.0000
  C   C2096     1.0  0.39144191992404265  0.9959184978896168  0.7756303107303127  1.0000
  C   C2097     1.0  0.38629605953491464  0.9824557134414551  0.7685500669393013  1.0000
  C   C2098     1.0  0.39450182949706347  0.970974279406956  0.7808532680714174  1.0000
  C   C2099     1.0  0.4081568713023289  0.9735768185606332  0.7977450592562448  1.0000
  C   C2100     1.0  0.4128538927513302  0.9868057275818477  0.804913409615089  1.0000
  C   C2101     1.0  0.3916195516482722  0.943519111209835  0.805843814971399  1.0000
  C   C2102     1.0  0.3901039344130233  0.929291109118489  0.7937591181275072  1.0000
  C   C2103     1.0  0.39142571986708197  0.9189134722156654  0.8265981980899988  1.0000
  C   C2104     1.0  0.3949022558332766  0.9223065583955999  0.8716453240913478  1.0000
  C   C2105     1.0  0.3972323302166179  0.9361769369373864  0.8838850884946244  1.0000
  C   C2106     1.0  0.39562446172739796  0.946448609020808  0.8509649504897271  1.0000
  C   C2107     1.0  0.3627807295749558  0.9582075129936266  0.7853396545054431  1.0000
  C   C2108     1.0  0.34856422517036223  0.9562620148154871  0.7762576294932795  1.0000
  C   C2109     1.0  0.344379255161084  0.9496510643346988  0.7349145036036047  1.0000
  C   C2110     1.0  0.354504647936491  0.9446518335423855  0.70518382335424  1.0000
  C   C2111     1.0  0.3686390677687921  0.9462756229175104  0.7151997779854271  1.0000
  C   C2112     1.0  0.37324392708073834  0.9537092279219119  0.7542909000013057  1.0000
  H   H1321     1.0  0.43686171875878416  0.9723922264881667  0.5212736979236041  1.0000
  H   H1322     1.0  0.42873954459140434  0.9835381708270875  0.6649050248039805  1.0000
  H   H1323     1.0  0.4296048639400504  0.007922083981971806  0.6428889556340208  1.0000
  H   H1324     1.0  0.43814643247179424  0.9958096652792385  0.5011360607798311  1.0000
  H   H1325     1.0  0.44652852016378475  0.9651128345166152  0.692764321552585  1.0000
  H   H1326     1.0  0.47157093241950615  0.9636887230888961  0.7066146740158382  1.0000
  H   H1327     1.0  0.4765904633222137  0.9500588509783202  0.5625498628217263  1.0000
  H   H1328     1.0  0.45292020889705636  0.9519385202974365  0.5497391678588954  1.0000
  H   H1329     1.0  0.40475409590734607  0.970752125709349  0.6195830063109947  1.0000
  H   H1330     1.0  0.3869636458724547  0.9678118131476204  0.6803271984373637  1.0000
  H   H1331     1.0  0.4149121721036017  0.9395572580274393  0.7535014651535276  1.0000
  H   H1332     1.0  0.43167458737177034  0.941242544531977  0.6910726754502031  1.0000
  H   H1333     1.0  0.3843905033196164  0.004611764845271926  0.7659491610568888  1.0000
  H   H1334     1.0  0.3758135924278111  0.9812343110757544  0.7540935412893612  1.0000
  H   H1335     1.0  0.4151369395620448  0.9648866456992362  0.8040252954113383  1.0000
  H   H1336     1.0  0.42348894241035445  0.9882627253502435  0.8181152977390954  1.0000
  H   H1337     1.0  0.38736066524276064  0.9260051567745138  0.7588794900540172  1.0000
  H   H1338     1.0  0.3900633189053651  0.9079806527599955  0.8163602149078741  1.0000
  H   H1339     1.0  0.40059764811945525  0.938894256006631  0.9183594263560855  1.0000
  H   H1340     1.0  0.3971368872831208  0.9571884167352552  0.864395915690098  1.0000
  H   H1341     1.0  0.36567047462306257  0.9627277622060216  0.8194333719938682  1.0000
  H   H1342     1.0  0.34050215204612005  0.9597615388875433  0.800176800528419  1.0000
  H   H1343     1.0  0.35170345950958914  0.9389062767512792  0.6737227301126472  1.0000
  H   H1344     1.0  0.37572687111428704  0.9423198024404174  0.6879607514743628  1.0000
  C   C2113     1.0  0.1708683708432593  0.20294506276739274  0.2050599308256676  1.0000
  C   C2114     1.0  0.16569941512661882  0.2132829244398674  0.17571515734340884  1.0000
  C   C2115     1.0  0.17408324801740244  0.21960997399413196  0.14365317730919894  1.0000
  C   C2116     1.0  0.18848190997662137  0.21700537618922372  0.14307484579794705  1.0000
  C   C2117     1.0  0.19356054934053307  0.20634518339899527  0.17143212086794027  1.0000
  C   C2118     1.0  0.18495674101623857  0.19978431480506917  0.2037563060480194  1.0000
  H   H1345     1.0  0.15464762002100896  0.21602342963261978  0.1781451364842264  1.0000
  H   H1346     1.0  0.1691024407218414  0.22734469066568902  0.12145419890441905  1.0000
  H   H1347     1.0  0.204334680049444  0.2025501104703372  0.167685124751164  1.0000
  H   H1348     1.0  0.18885060959655572  0.19135292835007015  0.2253304326737319  1.0000
  C   C2119     1.0  0.2193353098450401  0.22740470930803874  0.16103131674846125  1.0000
  C   C2120     1.0  0.2143681146316152  0.22609151085254098  0.1157544088182055  1.0000
  C   C2121     1.0  0.2243297848163383  0.2268736746185401  0.0791637511974103  1.0000
  C   C2122     1.0  0.23845968459931766  0.22698980792774698  0.08797088371793689  1.0000
  C   C2123     1.0  0.24299370238963044  0.22717694322992713  0.13464304725638648  1.0000
  C   C2124     1.0  0.23365107643055993  0.22767544717228538  0.17112515758561217  1.0000
  C   C2125     1.0  0.19799120552254243  0.22526554251622324  0.10453632817551317  1.0000
  C   C2126     1.0  0.1949242894165815  0.24141503697991631  0.09692321586225125  1.0000
  C   C2127     1.0  0.19981947814186457  0.24851601014555427  0.05788354808198669  1.0000
  C   C2128     1.0  0.1995985296556441  0.2628076329683617  0.05589656876423043  1.0000
  C   C2129     1.0  0.1940808921217793  0.2705655448883437  0.09236000050107566  1.0000
  C   C2130     1.0  0.18956378227486326  0.2636828761265684  0.13181306429760983  1.0000
  C   C2131     1.0  0.1895002634590028  0.24954770716004365  0.1343195199393059  1.0000
  C   C2132     1.0  0.20159168597010602  0.20227612837864553  0.06013449467696881  1.0000
  C   C2133     1.0  0.19988247568302905  0.19332977090238682  0.02353026864472741  1.0000
  C   C2134     1.0  0.19190139696990013  0.19670336458848098  0.9831882389671646  1.0000
  C   C2135     1.0  0.18597258499518204  0.20991283626608806  0.9821591542548821  1.0000
  C   C2136     1.0  0.18717917568048184  0.21889863811656274  0.02002151268736996  1.0000
  C   C2137     1.0  0.19539650046146295  0.2156817073262168  0.05899298598413225  1.0000
  C   C2138     1.0  0.19091734211343522  0.18554642391991497  0.9416230845265521  1.0000
  C   C2139     1.0  0.23606676026768816  0.17479676626771562  0.923688111578589  1.0000
  C   C2140     1.0  0.22629653702226715  0.164501003088011  0.9308035979967335  1.0000
  C   C2141     1.0  0.21206054391414045  0.16738695858288094  0.9354027608375847  1.0000
  C   C2142     1.0  0.20697775330896295  0.1809299325209398  0.9309903839205381  1.0000
  C   C2143     1.0  0.21715384749060002  0.1910520170739211  0.9219894169507804  1.0000
  C   C2144     1.0  0.23138323046243586  0.18815951602941894  0.9198501894838097  1.0000
  C   C2145     1.0  0.1835733583187818  0.19195687633913136  0.8950358557194928  1.0000
  C   C2146     1.0  0.1691587484931675  0.19409703309243945  0.8962940175081395  1.0000
  C   C2147     1.0  0.16204556652176594  0.1999597893472241  0.8588910173319296  1.0000
  C   C2148     1.0  0.1692532682646486  0.2037115251017876  0.8195109057735607  1.0000
  C   C2149     1.0  0.18380251837700573  0.20281059475154734  0.8197329343244982  1.0000
  C   C2150     1.0  0.19080170684817627  0.19636704755482082  0.8548169696353595  1.0000
  C   C2151     1.0  0.17909446253036773  0.16178904915879339  0.9258484846218394  1.0000
  C   C2152     1.0  0.17035392597498855  0.15086715980377297  0.9364036514481607  1.0000
  C   C2153     1.0  0.16454481385542083  0.14997202641681706  0.9804322655253671  1.0000
  C   C2154     1.0  0.16683325770729443  0.16034904497843083  0.012989903721801881  1.0000
  C   C2155     1.0  0.17496253318663493  0.17166373681485841  0.001489735237310441  1.0000
  C   C2156     1.0  0.18173520746362068  0.17238602140417278  0.958137779601057  1.0000
  H   H1349     1.0  0.21202577569959347  0.22822050975599215  0.18943334995491332  1.0000
  H   H1350     1.0  0.22045375642101075  0.22661208389954965  0.042257319637503774  1.0000
  H   H1351     1.0  0.24624790541863187  0.22698902201350254  0.05963616392930877  1.0000
  H   H1352     1.0  0.23764754664932786  0.22750224996286214  0.2063498109787339  1.0000
  H   H1353     1.0  0.20496950490823954  0.2435032833403439  0.02858402613296667  1.0000
  H   H1354     1.0  0.20386197199499956  0.26765090175342887  0.025094477407396686  1.0000
  H   H1355     1.0  0.18598886727229472  0.26938119273003025  0.16315116077050876  1.0000
  H   H1356     1.0  0.1866250923986504  0.24490875049888913  0.1676724374053961  1.0000
  H   H1357     1.0  0.2078087785382953  0.19893577205450327  0.09045337437318256  1.0000
  H   H1358     1.0  0.20509005154824522  0.18342728106889852  0.027212982209613146  1.0000
  H   H1359     1.0  0.18042686145660597  0.21391076052995836  0.9515615053780466  1.0000
  H   H1360     1.0  0.18199656954187307  0.2291053538320024  0.016480333513050192  1.0000
  H   H1361     1.0  0.22987584259468774  0.15385820111746457  0.9351313926086608  1.0000
  H   H1362     1.0  0.2052037179498898  0.15858131928335004  0.9446504261972734  1.0000
  H   H1363     1.0  0.21444713237417073  0.20191574710452379  0.9196986461871379  1.0000
  H   H1364     1.0  0.23868498920911912  0.19707555210328742  0.9146519019816981  1.0000
  H   H1365     1.0  0.16337917177291272  0.19180107331499038  0.9289110689196937  1.0000
  H   H1366     1.0  0.15075988587264197  0.20194625937983177  0.8616963304517131  1.0000
  H   H1367     1.0  0.1891787502469272  0.20582408890104895  0.7873907754045814  1.0000
  H   H1368     1.0  0.20191138621193291  0.1951893566857531  0.8490195574719877  1.0000
  H   H1369     1.0  0.18265544759936933  0.162877784681362  0.8901653246497179  1.0000
  H   H1370     1.0  0.1679097399977087  0.14332210615125032  0.90944656595416  1.0000
  H   H1371     1.0  0.1621682004073842  0.15977295027388483  0.04784045662790722  1.0000
  H   H1372     1.0  0.1755077990516304  0.1797008414027504  0.028109272702858575  1.0000
  C   C2157     1.0  0.1668426102089706  0.20349747021081294  0.6929616802645298  1.0000
  C   C2158     1.0  0.16139677731348148  0.21155189558415796  0.6571763166737227  1.0000
  C   C2159     1.0  0.1695941674821525  0.2146117567420832  0.6190226485395806  1.0000
  C   C2160     1.0  0.18359938927669867  0.21060323075536314  0.6168869453353233  1.0000
  C   C2161     1.0  0.18843640374679843  0.2015342631702212  0.6518723012902122  1.0000
  C   C2162     1.0  0.18061962792723651  0.19843366169186652  0.6905405117804954  1.0000
  H   H1373     1.0  0.15106603679575395  0.2162701479573087  0.6581490131825923  1.0000
  H   H1374     1.0  0.16525074467872783  0.22142645269377725  0.5931580844867016  1.0000
  H   H1375     1.0  0.19901366146996582  0.1970894532304618  0.6499128112216196  1.0000
  H   H1376     1.0  0.18500598744585067  0.19200125952348876  0.7179346058509448  1.0000
  C   C2163     1.0  0.2138189914780762  0.22246747873478964  0.6368659906569981  1.0000
  C   C2164     1.0  0.2098683219900503  0.21924189413914832  0.5908250225704997  1.0000
  C   C2165     1.0  0.2203319419950036  0.2196229668253857  0.556199141412367  1.0000
  C   C2166     1.0  0.23415419541325053  0.22138608148530403  0.5689041084937988  1.0000
  C   C2167     1.0  0.2382025990993508  0.22315066598743338  0.6152939785889135  1.0000
  C   C2168     1.0  0.22786686404771975  0.22417384339463806  0.6492326285179535  1.0000
  C   C2169     1.0  0.1938363897225913  0.2160852579663275  0.5763085844544337  1.0000
  C   C2170     1.0  0.19027471867251486  0.2305108841698957  0.5508634076644369  1.0000
  C   C2171     1.0  0.19197163589528202  0.2322079805593135  0.5022285822209528  1.0000
  C   C2172     1.0  0.1891902850575451  0.24451293292145398  0.48062485178844866  1.0000
  C   C2173     1.0  0.18270124506010446  0.25529208770163353  0.5054321370273388  1.0000
  C   C2174     1.0  0.18161517076473443  0.2540773548089318  0.5536687207842205  1.0000
  C   C2175     1.0  0.18598788044776648  0.24218732731340376  0.577157931768338  1.0000
  C   C2176     1.0  0.20205438490573033  0.19257039353783376  0.5417672856014201  1.0000
  C   C2177     1.0  0.20165912773660372  0.1819810854562546  0.5104718327073521  1.0000
  C   C2178     1.0  0.19152508351675557  0.18173049518483697  0.4751446232692734  1.0000
  C   C2179     1.0  0.1806277163710501  0.1913416715238486  0.47880280796567465  1.0000
  C   C2180     1.0  0.1809118863861598  0.20186544244051363  0.5117758099112715  1.0000
  C   C2181     1.0  0.19213734681851194  0.2030876418912408  0.541647460669168  1.0000
  C   C2182     1.0  0.19205914490702575  0.17027679322822079  0.4338155944304518  1.0000
  C   C2183     1.0  0.2369593429612352  0.16296136234371325  0.4065941892329539  1.0000
  C   C2184     1.0  0.22809062692179574  0.1518805517891594  0.40901183345427494  1.0000
  C   C2185     1.0  0.2141373171151536  0.1539636094397271  0.41533083649921454  1.0000
  C   C2186     1.0  0.20821480431336203  0.16742565994002126  0.4201449793655768  1.0000
  C   C2187     1.0  0.21793547355138312  0.17842283042240228  0.4185661096700202  1.0000
  C   C2188     1.0  0.23219791609528861  0.17633316549483077  0.4112779343789242  1.0000
  C   C2189     1.0  0.1844031306770897  0.17768925018094223  0.3881799165559825  1.0000
  C   C2190     1.0  0.16987028738237428  0.17586920306896567  0.3810503330869848  1.0000
  C   C2191     1.0  0.16256853415366057  0.184388158591219  0.3513372741511866  1.0000
  C   C2192     1.0  0.1693505292200073  0.19419825387072834  0.3247019538429098  1.0000
  C   C2193     1.0  0.18362313671484318  0.19602693679220345  0.3293483418041192  1.0000
  C   C2194     1.0  0.19093757053028446  0.18805196643022262  0.36108890907887653  1.0000
  C   C2195     1.0  0.1798474542526625  0.14624356662637064  0.4180656643647322  1.0000
  C   C2196     1.0  0.17301061631164696  0.13409137176085717  0.43201469618395755  1.0000
  C   C2197     1.0  0.17085312168639918  0.13156604525642393  0.478640691880863  1.0000
  C   C2198     1.0  0.17569307306438067  0.14087196378465547  0.5113564226483893  1.0000
  C   C2199     1.0  0.18235527860712528  0.15277347119858029  0.49740386656645064  1.0000
  C   C2200     1.0  0.18428085105267025  0.1562375762253931  0.45082721054753133  1.0000
  H   H1377     1.0  0.20655583863901741  0.2228798146510996  0.6663816908808516  1.0000
  H   H1378     1.0  0.21779653108560823  0.21851723696231828  0.5199802935078245  1.0000
  H   H1379     1.0  0.24241229044790435  0.2212548910646968  0.5427540791611429  1.0000
  H   H1380     1.0  0.2305935455724637  0.22460344580881111  0.6867202109992825  1.0000
  H   H1381     1.0  0.19587270456600722  0.22395667831837213  0.4806953370427145  1.0000
  H   H1382     1.0  0.19060662571805378  0.24493921194745116  0.44308088110370686  1.0000
  H   H1383     1.0  0.1769059750907128  0.2622330739017783  0.5747896272250032  1.0000
  H   H1384     1.0  0.18539751410366861  0.24134663364582787  0.6143917673343097  1.0000
  H   H1385     1.0  0.2103424741106072  0.191531485521159  0.5693693111719539  1.0000
  H   H1386     1.0  0.20937777545789907  0.17410465202255918  0.5128824284032464  1.0000
  H   H1387     1.0  0.17142332252915107  0.19099162133795297  0.45700171882122587  1.0000
  H   H1388     1.0  0.1724314318353329  0.20939725351825889  0.5140383865732076  1.0000
  H   H1389     1.0  0.23184830731032524  0.14139372591623633  0.4059069580038612  1.0000
  H   H1390     1.0  0.20803136666590344  0.144345912752278  0.41744891838990544  1.0000
  H   H1391     1.0  0.21439094280974286  0.18907102439091963  0.4244093372486649  1.0000
  H   H1392     1.0  0.23924608409991055  0.18532450771835832  0.411894680353751  1.0000
  H   H1393     1.0  0.16377910373978227  0.16839816242198155  0.40125493122231054  1.0000
  H   H1394     1.0  0.1515170723875255  0.18304672852231332  0.3484346913805161  1.0000
  H   H1395     1.0  0.18950591013282536  0.20317130326021376  0.3077009105139702  1.0000
  H   H1396     1.0  0.2020261633520143  0.18975932255682224  0.36032414407009133  1.0000
  H   H1397     1.0  0.18108936405775347  0.1478478810583339  0.38090583831573965  1.0000
  H   H1398     1.0  0.16932846269179752  0.1271232249879944  0.4050999018425164  1.0000
  H   H1399     1.0  0.17481614143590976  0.1384181959829703  0.5489884999009635  1.0000
  H   H1400     1.0  0.18592077601338303  0.15950371474984038  0.5249248340945787  1.0000
  C   C2201     1.0  0.19574769524548244  0.3098399773992839  0.04885332973170848  1.0000
  C   C2202     1.0  0.18802915364201006  0.3201522131444963  0.06992806833094693  1.0000
  C   C2203     1.0  0.1935245994096823  0.33361888923785626  0.07283135595416014  1.0000
  C   C2204     1.0  0.20718087232802299  0.33625466411587496  0.059560744707244234  1.0000
  C   C2205     1.0  0.21439011917584955  0.3258563956379891  0.035175842354542554  1.0000
  C   C2206     1.0  0.2090226731127546  0.31254283164962726  0.03218976980019402  1.0000
  H   H1401     1.0  0.17749209679335207  0.3184483461809466  0.08146579960173522  1.0000
  H   H1402     1.0  0.18705666236547278  0.34178127158780736  0.08861723349955536  1.0000
  H   H1403     1.0  0.22509177952417278  0.3271163833251283  0.023033030418508488  1.0000
  H   H1404     1.0  0.2150658638151166  0.30426142362670666  0.015562116251501168  1.0000
  C   C2207     1.0  0.2329683931472987  0.33762770252247304  0.12119340346363515  1.0000
  C   C2208     1.0  0.2298023965513006  0.3487790725698843  0.09050412375625401  1.0000
  C   C2209     1.0  0.24015047374413084  0.3585238452664324  0.08240149135211529  1.0000
  C   C2210     1.0  0.25328012042141756  0.35724972966934787  0.10274001147054623  1.0000
  C   C2211     1.0  0.2561773177675757  0.34605349507961203  0.13092565494640193  1.0000
  C   C2212     1.0  0.24608796444476516  0.33604263695115383  0.14006054389926503  1.0000
  C   C2213     1.0  0.21408624460724066  0.35078812129007564  0.06910515298739232  1.0000
  C   C2214     1.0  0.20771279381089902  0.36073297640271007  0.10878729386029073  1.0000
  C   C2215     1.0  0.2075042542233124  0.37512041516323813  0.10145436043273587  1.0000
  C   C2216     1.0  0.20204198419803956  0.3838359837162116  0.13472234316743564  1.0000
  C   C2217     1.0  0.1974589135540957  0.37863049184206127  0.17738636272205377  1.0000
  C   C2218     1.0  0.1978800466119661  0.36449588409837763  0.18486414334712511  1.0000
  C   C2219     1.0  0.2036500693518479  0.3557144722454698  0.15232850240424822  1.0000
  C   C2220     1.0  0.22265867287582736  0.35706421320020826  0.9840446348064955  1.0000
  C   C2221     1.0  0.22130111227709987  0.36446777464044605  0.9433288276797873  1.0000
  C   C2222     1.0  0.20906246885331062  0.3718149692690616  0.9326044962432277  1.0000
  C   C2223     1.0  0.19759212435094048  0.37014652813797505  0.962842670323307  1.0000
  C   C2224     1.0  0.1992154137879758  0.3627093711845301  0.003463322356756171  1.0000
  C   C2225     1.0  0.2119903970765298  0.35727668571975024  0.017565066333575553  1.0000
  C   C2226     1.0  0.2080645402210946  0.380158848680532  0.8837370694606661  1.0000
  C   C2227     1.0  0.24824659386913772  0.3993008753894179  0.837354247890978  1.0000
  C   C2228     1.0  0.23862292081319936  0.3946517739684272  0.8037609757078411  1.0000
  C   C2229     1.0  0.2256427740192032  0.38986189116051395  0.818037763959403  1.0000
  C   C2230     1.0  0.22209309964922175  0.3883018304106221  0.8655307282837792  1.0000
  C   C2231     1.0  0.2318664853271833  0.39333565433734974  0.8984367692378235  1.0000
  C   C2232     1.0  0.24441878667372807  0.39913959081944367  0.8834516041808891  1.0000
  C   C2233     1.0  0.1977272767437586  0.3932275810937777  0.8853688030969221  1.0000
  C   C2234     1.0  0.1958972923807984  0.40129752519013  0.9266449679950443  1.0000
  C   C2235     1.0  0.18560348678685382  0.41138970109088646  0.9289322144959734  1.0000
  C   C2236     1.0  0.1769193434921731  0.41392498377672143  0.8903767804125157  1.0000
  C   C2237     1.0  0.17916962171915626  0.40648210069752533  0.848547306268406  1.0000
  C   C2238     1.0  0.18918082805251177  0.3964425191605641  0.8467217381829187  1.0000
  C   C2239     1.0  0.1901962752360675  0.36245431729141653  0.8507217763625096  1.0000
  C   C2240     1.0  0.18655936681788668  0.3503121892164477  0.82774358347182  1.0000
  C   C2241     1.0  0.19678079544459187  0.34180129250755553  0.8078526447179777  1.0000
  C   C2242     1.0  0.21050307967046591  0.34616986391759763  0.807595373539907  1.0000
  C   C2243     1.0  0.21398444075590256  0.3588765540083582  0.8281242038448561  1.0000
  C   C2244     1.0  0.20389397839557835  0.36714606188643084  0.8508134071930553  1.0000
  H   H1405     1.0  0.2250720292532657  0.32987500506270173  0.12997657099771132  1.0000
  H   H1406     1.0  0.23836556101043976  0.36715128659916046  0.060553177087308376  1.0000
  H   H1407     1.0  0.26181811479612094  0.36479858159100603  0.09608514618902947  1.0000
  H   H1408     1.0  0.247935325737645  0.3271504398781958  0.16380808334026714  1.0000
  H   H1409     1.0  0.21139730487581238  0.37984059915434737  0.0695287693655305  1.0000
  H   H1410     1.0  0.20099227822949436  0.39488673256036705  0.126927731324439  1.0000
  H   H1411     1.0  0.19367552278235817  0.3600819650439518  0.21674991024567025  1.0000
  H   H1412     1.0  0.20452344735753547  0.34455651997738596  0.1594563237418893  1.0000
  H   H1413     1.0  0.23256014614975826  0.3523364091637286  0.9924429528522797  1.0000
  H   H1414     1.0  0.2302509297595001  0.36435936668572233  0.9195118602633333  1.0000
  H   H1415     1.0  0.18730338475569358  0.3739124516715917  0.9543139545571308  1.0000
  H   H1416     1.0  0.1899244755364652  0.3623561164175232  0.026119720673321613  1.0000
  H   H1417     1.0  0.24122372317523721  0.39507920005522007  0.7665200916164427  1.0000
  H   H1418     1.0  0.21803082745202265  0.3861373005137721  0.7922577822116431  1.0000
  H   H1419     1.0  0.23027683794969897  0.39318924923952125  0.9354203821511512  1.0000
  H   H1420     1.0  0.25235465904363924  0.4020260981679853  0.9091857705133761  1.0000
  H   H1421     1.0  0.2017871221435578  0.3987915475120539  0.9585254484995195  1.0000
  H   H1422     1.0  0.18357765013052066  0.4169623280418961  0.9608197435258752  1.0000
  H   H1423     1.0  0.17231697872810098  0.40869385776083667  0.8182703652984805  1.0000
  H   H1424     1.0  0.19034812375630264  0.39170436425035654  0.8134456496439783  1.0000
  H   H1425     1.0  0.18220112797198182  0.36816981755801037  0.8703448711501414  1.0000
  H   H1426     1.0  0.17556574697414393  0.34677921293769975  0.8268413722172163  1.0000
  H   H1427     1.0  0.21858793304178556  0.3398193099133514  0.792994353118722  1.0000
  H   H1428     1.0  0.2251032977085148  0.361745881072018  0.8267215472849642  1.0000
  C   C2245     1.0  0.19354008970689987  0.2882115248501895  0.47895082699963304  1.0000
  C   C2246     1.0  0.1854436576760414  0.29910775980060095  0.4960575982099716  1.0000
  C   C2247     1.0  0.19138301810019528  0.30994757708976  0.5203291955164409  1.0000
  C   C2248     1.0  0.20566154700487368  0.3100449706559464  0.5295698123507028  1.0000
  C   C2249     1.0  0.21383564044408807  0.2989164398568431  0.5109511324363603  1.0000
  C   C2250     1.0  0.20775809355991517  0.2883935833254921  0.4840398623576324  1.0000
  H   H1429     1.0  0.17409588399527745  0.2994288966512101  0.4901192155380679  1.0000
  H   H1430     1.0  0.18492330653305541  0.3183588524040184  0.5338165489202245  1.0000
  H   H1431     1.0  0.22537518687869595  0.2988821687882592  0.515247208683868  1.0000
  H   H1432     1.0  0.21466913247043407  0.28072634664764545  0.46845909690215104  1.0000
  C   C2251     1.0  0.23461052024218473  0.31240048728463804  0.5901589369176867  1.0000
  C   C2252     1.0  0.22824923260870578  0.32378135595111857  0.5685375851716161  1.0000
  C   C2253     1.0  0.2366354999152425  0.33576350074784855  0.5606679065328263  1.0000
  C   C2254     1.0  0.2505267124442111  0.3359059307576796  0.5729429135632361  1.0000
  C   C2255     1.0  0.25663015086151303  0.3242222801384136  0.5924038922660563  1.0000
  C   C2256     1.0  0.24859352859530073  0.3125058452141412  0.6013202769306951  1.0000
  C   C2257     1.0  0.21184183174366986  0.32342308950078935  0.5569921005228586  1.0000
  C   C2258     1.0  0.20498061537769832  0.3244183717612717  0.6084357633488395  1.0000
  C   C2259     1.0  0.20666347989116318  0.33649480181730745  0.6358333816820022  1.0000
  C   C2260     1.0  0.20025223695568145  0.337819842584004  0.6788117654706464  1.0000
  C   C2261     1.0  0.19309026541385352  0.3266329660688595  0.6970286794356731  1.0000
  C   C2262     1.0  0.19256085815581145  0.3141141893405533  0.67375797273978  1.0000
  C   C2263     1.0  0.1986822540897122  0.3128487290842933  0.6301416974000293  1.0000
  C   C2264     1.0  0.21414456204949803  0.33572750035031096  0.4754230400236238  1.0000
  C   C2265     1.0  0.21371707118759353  0.3475982743640074  0.4475425976987395  1.0000
  C   C2266     1.0  0.20813656055272323  0.3603728869672675  0.46404319572239117  1.0000
  C   C2267     1.0  0.2015480169653742  0.35989176529250116  0.507137880180574  1.0000
  C   C2268     1.0  0.2012264458736275  0.3478831543462726  0.5336861511998324  1.0000
  C   C2269     1.0  0.2080783170144146  0.33583527657173373  0.5199591479315447  1.0000
  C   C2270     1.0  0.21177402864985698  0.3745299636564674  0.4384993395764221  1.0000
  C   C2271     1.0  0.256974256529805  0.3688463637921178  0.4525999146923192  1.0000
  C   C2272     1.0  0.25080517710246714  0.366974820452605  0.409536948598556  1.0000
  C   C2273     1.0  0.23665067398220346  0.36996769465545615  0.40420826337605253  1.0000
  C   C2274     1.0  0.22866073411313442  0.3746977837928137  0.44172756422180115  1.0000
  C   C2275     1.0  0.23555147226032352  0.3770641678108538  0.48405395940848556  1.0000
  C   C2276     1.0  0.2493957920863667  0.3740694366590913  0.49012626406349447  1.0000
  C   C2277     1.0  0.20461371516251442  0.3884585727393799  0.45888719937283917  1.0000
  C   C2278     1.0  0.18996116918794786  0.38907089450298643  0.4614035229501325  1.0000
  C   C2279     1.0  0.18324934916658556  0.4007539537866982  0.4789790211013394  1.0000
  C   C2280     1.0  0.19116178841828965  0.41261536413875555  0.4901967493177604  1.0000
  C   C2281     1.0  0.20544809836712485  0.4123291248300568  0.48729628110471784  1.0000
  C   C2282     1.0  0.21219870268102825  0.40059185964388966  0.4707604404539332  1.0000
  C   C2283     1.0  0.2101884560933499  0.3866414060501535  0.35701838564501975  1.0000
  C   C2284     1.0  0.20367801658500034  0.3894063760202308  0.31515930769411843  1.0000
  C   C2285     1.0  0.19335971809157518  0.38043835448700747  0.2991062910350553  1.0000
  C   C2286     1.0  0.1901136715689389  0.36851527138082485  0.32416732318930286  1.0000
  C   C2287     1.0  0.19649823784961362  0.3660323804279513  0.36579732406383997  1.0000
  C   C2288     1.0  0.20616490679067093  0.3752226779759996  0.3848107214020716  1.0000
  H   H1433     1.0  0.2286405361329872  0.30301233250164533  0.5982400713192745  1.0000
  H   H1434     1.0  0.2323020580278636  0.3450572044258864  0.5459541097048157  1.0000
  H   H1435     1.0  0.25658850468054534  0.3454872812331188  0.568713798307281  1.0000
  H   H1436     1.0  0.2529066182514722  0.3032247032741468  0.6191953374125322  1.0000
  H   H1437     1.0  0.21283253095798815  0.34460659182376063  0.6217151852525387  1.0000
  H   H1438     1.0  0.2007683179185701  0.34729498582826135  0.6996613036825052  1.0000
  H   H1439     1.0  0.18722412306560202  0.30517171880924665  0.6880171396777754  1.0000
  H   H1440     1.0  0.19757418628880896  0.30257363616418037  0.6136375751136643  1.0000
  H   H1441     1.0  0.22028332308280615  0.3267551280835032  0.46212952106907146  1.0000
  H   H1442     1.0  0.2197893358133457  0.34747665281782275  0.41531321518564807  1.0000
  H   H1443     1.0  0.197571236771711  0.3693297758705017  0.5234481680177078  1.0000
  H   H1444     1.0  0.19617363129038826  0.34832426029135355  0.5678292083662436  1.0000
  H   H1445     1.0  0.25576517865398324  0.36229537074492724  0.379397453874449  1.0000
  H   H1446     1.0  0.23171912072231526  0.3669068077447236  0.37118592175246945  1.0000
  H   H1447     1.0  0.2294362694374177  0.38031184955932085  0.5141194446156133  1.0000
  H   H1448     1.0  0.2550374342742021  0.3750188945224466  0.5231486056870776  1.0000
  H   H1449     1.0  0.18376692656501656  0.38030161334520185  0.45012940653029876  1.0000
  H   H1450     1.0  0.17200820280360435  0.40111812534767244  0.48284866156053835  1.0000
  H   H1451     1.0  0.21132799591744994  0.42171437070090645  0.4929033830815717  1.0000
  H   H1452     1.0  0.22344762863611517  0.40163469449292716  0.46499827091769436  1.0000
  H   H1453     1.0  0.21784139611009853  0.39411350561985825  0.36922995594659025  1.0000
  H   H1454     1.0  0.2068939898667836  0.3987671746398763  0.2971006331249186  1.0000
  H   H1455     1.0  0.18239775462806163  0.3611975384894325  0.3125080048549059  1.0000
  H   H1456     1.0  0.19294936067194976  0.3569292062997893  0.3858468546397806  1.0000
  C   C2289     1.0  0.3456369105741418  0.16887258082890674  0.07190482728683463  1.0000
  C   C2290     1.0  0.3529847594451562  0.17825761033757362  0.09951354895652377  1.0000
  C   C2291     1.0  0.34580100312277307  0.18797079635252356  0.1266648213260271  1.0000
  C   C2292     1.0  0.33142292779214644  0.18862044442051681  0.1278412202197253  1.0000
  C   C2293     1.0  0.3243706041447053  0.17927392000914838  0.09929363496321411  1.0000
  C   C2294     1.0  0.3313225652960378  0.1692472811037463  0.07265866708120863  1.0000
  H   H1457     1.0  0.36455255174345147  0.17809726757555577  0.10317948703089423  1.0000
  H   H1458     1.0  0.35172461894755086  0.19481502449588153  0.14988160680240684  1.0000
  H   H1459     1.0  0.31320832812036353  0.17879577495276983  0.09652391689683483  1.0000
  H   H1460     1.0  0.32461142493809186  0.16185575429581156  0.0533763684979525  1.0000
  C   C2295     1.0  0.3020580482080186  0.2039714777982405  0.10973849236660932  1.0000
  C   C2296     1.0  0.3067298855729108  0.20078759874532276  0.15360322822764738  1.0000
  C   C2297     1.0  0.29674278484294625  0.20081605337471184  0.18964198630754042  1.0000
  C   C2298     1.0  0.2827449650798951  0.20391176764728164  0.18122357996429042  1.0000
  C   C2299     1.0  0.2786469196883982  0.20707767403159028  0.13692218795307498  1.0000
  C   C2300     1.0  0.2883210382377285  0.2071941623328926  0.10148607879715553  1.0000
  C   C2301     1.0  0.3230699164084157  0.1980945378455879  0.1648805164839231  1.0000
  C   C2302     1.0  0.328600229777925  0.2137731616292679  0.1672421249281027  1.0000
  C   C2303     1.0  0.324659591926607  0.22250995418656552  0.20450838371103677  1.0000
  C   C2304     1.0  0.3282784902965402  0.23634255539976876  0.2069799491518712  1.0000
  C   C2305     1.0  0.33592373558760175  0.24240415912204447  0.1714479800501501  1.0000
  C   C2306     1.0  0.3396662720016168  0.23415168003798104  0.13332708755924177  1.0000
  C   C2307     1.0  0.3358046837641891  0.22028556172870656  0.13100248387355176  1.0000
  C   C2308     1.0  0.3179346184646057  0.17554661937848332  0.21087989827040451  1.0000
  C   C2309     1.0  0.3173652919664462  0.16774327214797946  0.25111358625793373  1.0000
  C   C2310     1.0  0.32336393161529164  0.1719608712843144  0.2931696704945083  1.0000
  C   C2311     1.0  0.3306838414443771  0.1846962435961578  0.2921465770288385  1.0000
  C   C2312     1.0  0.3321210188696408  0.19237980121311274  0.2512478606673103  1.0000
  C   C2313     1.0  0.3248688675956728  0.18850269785385818  0.211208711981555  1.0000
  C   C2314     1.0  0.3211189712672892  0.16284856724668598  0.34008500816017534  1.0000
  C   C2315     1.0  0.27464164599646695  0.16524399770491977  0.3490299393527918  1.0000
  C   C2316     1.0  0.28118601016626393  0.1529421884236164  0.33499879221234663  1.0000
  C   C2317     1.0  0.2955590924010441  0.15236670109189926  0.3328623841555466  1.0000
  C   C2318     1.0  0.3039075443396028  0.16356243221249786  0.3452230307698895  1.0000
  C   C2319     1.0  0.29720108658620853  0.17591921047561743  0.35733204502650306  1.0000
  C   C2320     1.0  0.2827119733754148  0.17687819768874727  0.35824482906924676  1.0000
  C   C2321     1.0  0.33011540619234925  0.16845904469277678  0.3819666413924418  1.0000
  C   C2322     1.0  0.3447777334531836  0.167953609945091  0.3791401826963784  1.0000
  C   C2323     1.0  0.35321715848223684  0.17361296781709873  0.41325504576108324  1.0000
  C   C2324     1.0  0.3469419216090147  0.17876873446136  0.4534739318452166  1.0000
  C   C2325     1.0  0.33263522506219334  0.17897995430149613  0.45792155138939605  1.0000
  C   C2326     1.0  0.3242995584429599  0.17306376626820855  0.4242683667401331  1.0000
  C   C2327     1.0  0.32310770189568716  0.13701879964561325  0.3703506714894183  1.0000
  C   C2328     1.0  0.3256181920340467  0.12311376431694751  0.3644545799700742  1.0000
  C   C2329     1.0  0.33161532127892124  0.11804568871080798  0.3229503952744017  1.0000
  C   C2330     1.0  0.3361381152148351  0.12761570666217803  0.29020858496279706  1.0000
  C   C2331     1.0  0.33395684234714845  0.1415742188289406  0.2960525173939844  1.0000
  C   C2332     1.0  0.32643031873118167  0.14652290777561652  0.3348972934462037  1.0000
  H   H1461     1.0  0.3091581907333112  0.20416514563489285  0.07942454663819419  1.0000
  H   H1462     1.0  0.29947978196835773  0.19978216204954022  0.22625625648851472  1.0000
  H   H1463     1.0  0.2752077706990281  0.2043668289028402  0.20987654067592915  1.0000
  H   H1464     1.0  0.2856951288171521  0.21019302503045884  0.06606935308615919  1.0000
  H   H1465     1.0  0.3181660942154828  0.2183479144137869  0.23360046755675218  1.0000
  H   H1466     1.0  0.3235341149177114  0.242835550257555  0.23388945709924241  1.0000
  H   H1467     1.0  0.34484007726719934  0.23908442100498245  0.10350054736407549  1.0000
  H   H1468     1.0  0.3378776322433969  0.21460624009492643  0.10001892822961042  1.0000
  H   H1469     1.0  0.3109065790526205  0.17241067758975792  0.18253390084109386  1.0000
  H   H1470     1.0  0.3112630813558406  0.15818194344431485  0.2491519816317132  1.0000
  H   H1471     1.0  0.33642159649388176  0.18825148082149257  0.3229183244837108  1.0000
  H   H1472     1.0  0.3378809257440613  0.20209071658947864  0.25195729475149675  1.0000
  H   H1473     1.0  0.2742944608850754  0.14392393859915567  0.3290279863234806  1.0000
  H   H1474     1.0  0.29990195039726436  0.1425946338545679  0.31822365412332926  1.0000
  H   H1475     1.0  0.30302441065986113  0.1851279427330532  0.3652545876059924  1.0000
  H   H1476     1.0  0.27776246130512755  0.18683986550486592  0.3688740054125473  1.0000
  H   H1477     1.0  0.34989372857388584  0.16446295492873644  0.3469809330112815  1.0000
  H   H1478     1.0  0.3644470599240352  0.17430096748299923  0.4097801227257734  1.0000
  H   H1479     1.0  0.3280404256489421  0.18375265422661446  0.4877473867320197  1.0000
  H   H1480     1.0  0.31320297588414014  0.17361791035486077  0.43175390074317366  1.0000
  H   H1481     1.0  0.3183310759281413  0.1404172794802678  0.402904286172133  1.0000
  H   H1482     1.0  0.3227272543141706  0.11598361070901778  0.3911226759215847  1.0000
  H   H1483     1.0  0.341610304597875  0.12448200639921649  0.25906784720184267  1.0000
  H   H1484     1.0  0.33641710463690294  0.14891877120517774  0.2674545351806731  1.0000
  C   C2333     1.0  0.3460349315813263  0.1814666794563699  0.5803403409984442  1.0000
  C   C2334     1.0  0.3511781573884902  0.19092303870967287  0.611202309578777  1.0000
  C   C2335     1.0  0.342532456639491  0.19690619062221218  0.6443444761346121  1.0000
  C   C2336     1.0  0.32839946041941426  0.19378754004193477  0.6467163049406602  1.0000
  C   C2337     1.0  0.32355944332611636  0.1832732857616573  0.6172182260303731  1.0000
  C   C2338     1.0  0.3322408375393378  0.177194505043302  0.5835227502285506  1.0000
  H   H1485     1.0  0.3621691979669459  0.1937802641262778  0.6112974646720359  1.0000
  H   H1486     1.0  0.3469686921910142  0.20417878901066694  0.6688592475682986  1.0000
  H   H1487     1.0  0.312738777548881  0.18019781563866008  0.6168939938607498  1.0000
  H   H1488     1.0  0.3273343467685052  0.16923051603005312  0.5617287096095284  1.0000
  C   C2339     1.0  0.30108423489994673  0.20879232606535703  0.6185539215987123  1.0000
  C   C2340     1.0  0.30263400961827736  0.20348289328913513  0.664147308320622  1.0000
  C   C2341     1.0  0.29105142046039156  0.20246229934667936  0.69324009701888  1.0000
  C   C2342     1.0  0.2779763937049751  0.2045906825623879  0.6743394760874738  1.0000
  C   C2343     1.0  0.27641072091335955  0.20853123324050213  0.6285240608146264  1.0000
  C   C2344     1.0  0.2880226956366148  0.21133021730630486  0.6010066175492117  1.0000
  C   C2345     1.0  0.3181174621585509  0.20116416333333145  0.6847536724052634  1.0000
  C   C2346     1.0  0.3216237270736649  0.21736035562635703  0.6982586471226134  1.0000
  C   C2347     1.0  0.3167941497282751  0.22371850374052082  0.7395453848088755  1.0000
  C   C2348     1.0  0.31889228603538855  0.237917096684448  0.748267935024283  1.0000
  C   C2349     1.0  0.325692756147517  0.24591802499145834  0.715710796078855  1.0000
  C   C2350     1.0  0.3295349478802111  0.24031138563219165  0.6727253637647843  1.0000
  C   C2351     1.0  0.32725157227266066  0.22633344566055089  0.6651904900837576  1.0000
  C   C2352     1.0  0.3118406736627685  0.17718763679778504  0.7210042386742256  1.0000
  C   C2353     1.0  0.31291630718507446  0.16709852752858845  0.7540935412893612  1.0000
  C   C2354     1.0  0.31999187157272196  0.16913035230993229  0.7965397614082977  1.0000
  C   C2355     1.0  0.3263190087240397  0.1820671932095895  0.8022420184784106  1.0000
  C   C2356     1.0  0.32598136589945764  0.19190906068590832  0.7668337509979262  1.0000
  C   C2357     1.0  0.31865690480211945  0.18994160098638446  0.7255681588879439  1.0000
  C   C2358     1.0  0.31777834606153565  0.15835164448149644  0.8378828872979724  1.0000
  C   C2359     1.0  0.2739564018676691  0.170016515696963  0.8705492783875126  1.0000
  C   C2360     1.0  0.27676947511155425  0.15975964052261407  0.8390458939933602  1.0000
  C   C2361     1.0  0.29004361221246555  0.15541241318134316  0.8307180612018418  1.0000
  C   C2362     1.0  0.30156408359781  0.16182678227076586  0.8512786098712104  1.0000
  C   C2363     1.0  0.2987220447268337  0.17234605625969068  0.8833212064604972  1.0000
  C   C2364     1.0  0.28500920995160856  0.17594510188414852  0.8939045673885249  1.0000
  C   C2365     1.0  0.3285175765819107  0.15929809860348923  0.8810621540612744  1.0000
  C   C2366     1.0  0.3427149260100648  0.16181560572925296  0.8750638589232447  1.0000
  C   C2367     1.0  0.351925021343739  0.16262921391238902  0.9128897706250502  1.0000
  C   C2368     1.0  0.3472037673217002  0.15924184262267163  0.956735123041165  1.0000
  C   C2369     1.0  0.33401245808436186  0.15394550338611382  0.9617924400347448  1.0000
  C   C2370     1.0  0.3244268994124534  0.1545347243787455  0.9253691848928312  1.0000
  C   C2371     1.0  0.3142404334101604  0.13108533194208244  0.8436098142070784  1.0000
  C   C2372     1.0  0.3171355949813262  0.11757633079818448  0.8298510925743711  1.0000
  C   C2373     1.0  0.32651945884455885  0.11538091940323941  0.7940093407801512  1.0000
  C   C2374     1.0  0.33357788630477675  0.12639190649541043  0.7735580442548948  1.0000
  C   C2375     1.0  0.3313258596780717  0.13982459158091334  0.788099152209954  1.0000
  C   C2376     1.0  0.32080337904671247  0.14257305338119294  0.8215725994608388  1.0000
  H   H1489     1.0  0.3102428795304862  0.21051261646628547  0.5961924746828494  1.0000
  H   H1490     1.0  0.2921895731070439  0.1992981773648978  0.7300968364745292  1.0000
  H   H1491     1.0  0.26871183963632916  0.2021860811921868  0.6953722759604242  1.0000
  H   H1492     1.0  0.2866722325803314  0.2143980645149644  0.5648406335853687  1.0000
  H   H1493     1.0  0.3113483493369937  0.21737610579395467  0.7663192086417848  1.0000
  H   H1494     1.0  0.31401427791062014  0.24209769846491747  0.7797255040031628  1.0000
  H   H1495     1.0  0.33268994678046937  0.24658366607131427  0.643202615015504  1.0000
  H   H1496     1.0  0.3300406851065634  0.22266135094515951  0.6298527078575391  1.0000
  H   H1497     1.0  0.30526918453293966  0.17478849192973606  0.6908753167382585  1.0000
  H   H1498     1.0  0.30786454413894376  0.15729343191169842  0.7475877523206168  1.0000
  H   H1499     1.0  0.331525346406414  0.18490670013827468  0.8350705256527623  1.0000
  H   H1500     1.0  0.3314177001681867  0.2015812397733701  0.7742452754839875  1.0000
  H   H1501     1.0  0.26804862097365595  0.15527023428897835  0.8192183919683571  1.0000
  H   H1502     1.0  0.2912385011818299  0.14670375650712567  0.8058367664459725  1.0000
  H   H1503     1.0  0.30726072535968874  0.1781149314582151  0.8993389804924272  1.0000
  H   H1504     1.0  0.28292553209683385  0.1843103641267703  0.9175347488811743  1.0000
  H   H1505     1.0  0.3469207099622155  0.16446152489246146  0.8412978978671563  1.0000
  H   H1506     1.0  0.3628544309596649  0.1650293153777615  0.9071099797752449  1.0000
  H   H1507     1.0  0.3306186942160217  0.14989815094251344  0.9952271203957835  1.0000
  H   H1508     1.0  0.3138589508163143  0.15065026743902524  0.9306344333864953  1.0000
  H   H1509     1.0  0.30647709472688633  0.13261076289525212  0.8705528026502259  1.0000
  H   H1510     1.0  0.31169881276047434  0.10929577124312971  0.8475252700815502  1.0000
  H   H1511     1.0  0.3413212997194747  0.12407487699999238  0.7475983251087568  1.0000
  H   H1512     1.0  0.33738539142346385  0.1479126107212683  0.7718346797880931  1.0000
  C   C2377     1.0  0.34358738625144225  0.28005016948243533  0.2234467142534752  1.0000
  C   C2378     1.0  0.354479186878206  0.28917008545185213  0.21622620480647448  1.0000
  C   C2379     1.0  0.3520623541084687  0.3034771956299701  0.2134793944477316  1.0000
  C   C2380     1.0  0.3385471417475415  0.30868928187950456  0.2170840103508907  1.0000
  C   C2381     1.0  0.3279370691092293  0.2994296023512273  0.22997787791375524  1.0000
  C   C2382     1.0  0.3304244091508697  0.28542194014970446  0.23106828479724903  1.0000
  H   H1513     1.0  0.3650087977205259  0.2854494659254627  0.21242282048628547  1.0000
  H   H1514     1.0  0.3608309038726624  0.3103554780511616  0.20582258127682482  1.0000
  H   H1515     1.0  0.31722108501519936  0.30254922561986136  0.2370863158064732  1.0000
  H   H1516     1.0  0.321946914573008  0.2781392262557838  0.240091807048372  1.0000
  C   C2383     1.0  0.314751826530809  0.3189512133693933  0.15085077904856325  1.0000
  C   C2384     1.0  0.32072304738478735  0.3276669973126662  0.18478379015726198  1.0000
  C   C2385     1.0  0.3138799195204037  0.340105882322842  0.19455833279258827  1.0000
  C   C2386     1.0  0.3016801827190246  0.3437718178797165  0.1720171484783474  1.0000
  C   C2387     1.0  0.2953699923975751  0.33461563735483557  0.14175500941181773  1.0000
  C   C2388     1.0  0.30187248489737734  0.32214279214040487  0.13075930974633435  1.0000
  C   C2389     1.0  0.33568006903300385  0.3248541879313872  0.2052386109452317  1.0000
  C   C2390     1.0  0.34445951884311676  0.33110596619939736  0.16099219743234366  1.0000
  C   C2391     1.0  0.34534718913121254  0.3456118247029995  0.1533332697038089  1.0000
  C   C2392     1.0  0.3498213783378032  0.3507493762828352  0.111404058924913  1.0000
  C   C2393     1.0  0.3536061582340313  0.3417318964945147  0.07542556573741728  1.0000
  C   C2394     1.0  0.35336264425727604  0.32755125874578184  0.08327832791518332  1.0000
  C   C2395     1.0  0.34880055035461  0.3222510440538436  0.12494780053210933  1.0000
  C   C2396     1.0  0.3281085661317173  0.3294870011973807  0.2921740662780022  1.0000
  C   C2397     1.0  0.32924196630629954  0.3364945846145572  0.3339802802882041  1.0000
  C   C2398     1.0  0.33975184983047646  0.3462507673237964  0.3416755079226858  1.0000
  C   C2399     1.0  0.35047445807462285  0.3469533837356903  0.3088445337644347  1.0000
  C   C2400     1.0  0.34971177764596756  0.3393326356639826  0.26839657060393707  1.0000
  C   C2401     1.0  0.33788178660915563  0.33134882084003103  0.2566368107822112  1.0000
  C   C2402     1.0  0.3395296289112818  0.35557056784783037  0.3881059070390033  1.0000
  C   C2403     1.0  0.29735393519899267  0.36944931677024173  0.4326666847859173  1.0000
  C   C2404     1.0  0.3068726432366423  0.36544485380539743  0.46574541461291313  1.0000
  C   C2405     1.0  0.32015992852935504  0.36020453131524455  0.4526844969974383  1.0000
  C   C2406     1.0  0.3238221170018199  0.359422502767479  0.4054910950036922  1.0000
  C   C2407     1.0  0.3138586807425872  0.36405016788839223  0.3728987134311313  1.0000
  C   C2408     1.0  0.3006750517183562  0.3685459038494797  0.3863613969959218  1.0000
  C   C2409     1.0  0.34551069706381343  0.3714836385389262  0.38242831980788355  1.0000
  C   C2410     1.0  0.34496396791255285  0.3786820272852414  0.3397431546769856  1.0000
  C   C2411     1.0  0.34895140838638145  0.3924023984277626  0.3357434689236661  1.0000
  C   C2412     1.0  0.35330960309519815  0.3998598537673932  0.3739877106095397  1.0000
  C   C2413     1.0  0.35334102805949835  0.3933435483007437  0.4176004616865771  1.0000
  C   C2414     1.0  0.34897526628478726  0.3793084112411583  0.4213009375355379  1.0000
  C   C2415     1.0  0.3627789488361174  0.34824115504457254  0.42782434781784867  1.0000
  C   C2416     1.0  0.3714301462865827  0.33913253448696673  0.45048888132705495  1.0000
  C   C2417     1.0  0.36617214295296463  0.3266775635547792  0.4687727562836343  1.0000
  C   C2418     1.0  0.35185481188362255  0.3243314577874486  0.46638683042673296  1.0000
  C   C2419     1.0  0.3432342514359553  0.33395334952498956  0.44483596393492825  1.0000
  C   C2420     1.0  0.34851483667271305  0.3459548716841525  0.42230887667154055  1.0000
  H   H1517     1.0  0.3207532406405255  0.3099372728688312  0.13875409971144623  1.0000
  H   H1518     1.0  0.31782878212534627  0.3474040627544408  0.22033443785136353  1.0000
  H   H1519     1.0  0.2968393854649462  0.35368360689909345  0.18085353237939433  1.0000
  H   H1520     1.0  0.2973254622513865  0.3148026948783509  0.10510373447235381  1.0000
  H   H1521     1.0  0.34231507287446095  0.3527892654486244  0.18198799254680428  1.0000
  H   H1522     1.0  0.3487666766187426  0.36200846231750994  0.10563378358443352  1.0000
  H   H1523     1.0  0.355417149257339  0.3200300393341416  0.055424669986920104  1.0000
  H   H1524     1.0  0.346994400224178  0.31116520691728805  0.12803822650539853  1.0000
  H   H1525     1.0  0.31908209264915577  0.322667439968258  0.2868242354792189  1.0000
  H   H1526     1.0  0.3209390951042936  0.3346020595123365  0.358914438984773  1.0000
  H   H1527     1.0  0.3596111829595235  0.35313214213641797  0.3144199173768689  1.0000
  H   H1528     1.0  0.35852960118242805  0.340029663373239  0.2442183662593702  1.0000
  H   H1529     1.0  0.3036187448246833  0.36579238431122274  0.5024365137210373  1.0000
  H   H1530     1.0  0.32757579620404137  0.3574139018968262  0.4800891638560277  1.0000
  H   H1531     1.0  0.3166377921447959  0.36408021724982326  0.3361367766424699  1.0000
  H   H1532     1.0  0.2933175220181565  0.3714538704417076  0.3585267700863104  1.0000
  H   H1533     1.0  0.34089417412314504  0.37389700406952814  0.307492274161343  1.0000
  H   H1534     1.0  0.34896498868566467  0.39696962524380336  0.30114049547316973  1.0000
  H   H1535     1.0  0.35733255757966353  0.398892995653144  0.4491672828095689  1.0000
  H   H1536     1.0  0.3491136869861658  0.37387880129142353  0.4553171212442704  1.0000
  H   H1537     1.0  0.36819440418454913  0.35642839018838995  0.41023475261578857  1.0000
  H   H1538     1.0  0.3823108896928607  0.34197361799543624  0.45579994523599193  1.0000
  H   H1539     1.0  0.3472018999237566  0.3152358438623232  0.48387069774739416  1.0000
  H   H1540     1.0  0.3324762020688086  0.3313521027531652  0.4416500304421087  1.0000
  C   C2421     1.0  0.3318675692048545  0.28422495585792934  0.7583508506470228  1.0000
  C   C2422     1.0  0.34465624196893363  0.29099098085386194  0.753853891424857  1.0000
  C   C2423     1.0  0.34478659211415036  0.3046643885933137  0.7376317101555558  1.0000
  C   C2424     1.0  0.3326454728518316  0.3111132196192678  0.7221002843780606  1.0000
  C   C2425     1.0  0.31991651083906275  0.3049854559053462  0.7347171448916601  1.0000
  C   C2426     1.0  0.319359415146297  0.2915072468225117  0.7512600340678713  1.0000
  H   H1541     1.0  0.3545720841253884  0.2856051681665009  0.7611702608176595  1.0000
  H   H1542     1.0  0.35512336634388214  0.30931212386451273  0.7313831923648821  1.0000
  H   H1543     1.0  0.3101700832741501  0.31024570575457555  0.7283417536433077  1.0000
  H   H1544     1.0  0.30900824498731766  0.2864611829766092  0.7550486164846644  1.0000
  C   C2427     1.0  0.31549881823926884  0.31375783829969156  0.6292641559844186  1.0000
  C   C2428     1.0  0.3208794965317716  0.32589496492910147  0.6497542193995213  1.0000
  C   C2429     1.0  0.31493545924058824  0.33832193876834465  0.6357065082243236  1.0000
  C   C2430     1.0  0.30302121053053027  0.338517546397976  0.6081432495436361  1.0000
  C   C2431     1.0  0.29718940676088806  0.3262749081914948  0.592210057816825  1.0000
  C   C2432     1.0  0.3035726017935935  0.3138341136919956  0.6024480409989498  1.0000
  C   C2433     1.0  0.33349322477412563  0.3248896287236747  0.6870937828468918  1.0000
  C   C2434     1.0  0.3461955302851964  0.32444310356488637  0.6491727160518275  1.0000
  C   C2435     1.0  0.3516381965685187  0.336361170565647  0.6280553338737582  1.0000
  C   C2436     1.0  0.36197040480754583  0.33562325767479473  0.594007431800606  1.0000
  C   C2437     1.0  0.36750159561750456  0.32305599911247734  0.5797341678117574  1.0000
  C   C2438     1.0  0.3617782817437405  0.31103887467938707  0.5994277478536552  1.0000
  C   C2439     1.0  0.35146614484914823  0.311747113697486  0.6325346717823573  1.0000
  C   C2440     1.0  0.32128897294124265  0.3406260917091049  0.7482115468208703  1.0000
  C   C2441     1.0  0.3209189038354746  0.3521934097352573  0.777621519163325  1.0000
  C   C2442     1.0  0.33215831433089205  0.360877370616731  0.7845466953949515  1.0000
  C   C2443     1.0  0.34465463813961383  0.35660122362413105  0.7625094806487119  1.0000
  C   C2444     1.0  0.3456910528810218  0.3446005058925763  0.7357039384513829  1.0000
  C   C2445     1.0  0.33352168642670654  0.3375835955281704  0.7233936887938401  1.0000
  C   C2446     1.0  0.33137302231586024  0.3737895136410372  0.8208642226554662  1.0000
  C   C2447     1.0  0.287870677605551  0.3887429435193885  0.8284484360144793  1.0000
  C   C2448     1.0  0.2964904326443447  0.3897658083500996  0.8678990328271141  1.0000
  C   C2449     1.0  0.3104876792431852  0.3863464255803716  0.8647236721224344  1.0000
  C   C2450     1.0  0.31610898261492404  0.38070994236278843  0.8235109439531516  1.0000
  C   C2451     1.0  0.30814804423608017  0.38210854054565896  0.7827035059958978  1.0000
  C   C2452     1.0  0.2939012217339925  0.3852404285982528  0.7855793043699473  1.0000
  C   C2453     1.0  0.3408528658585744  0.3873442193091616  0.8105733755326422  1.0000
  C   C2454     1.0  0.34369441721945304  0.391969029591612  0.7659280154806091  1.0000
  C   C2455     1.0  0.3523602621000629  0.4035822857800193  0.759055703189682  1.0000
  C   C2456     1.0  0.35682024601130774  0.4116571980411863  0.7962401990776675  1.0000
  C   C2457     1.0  0.3531456119640008  0.4075695769614717  0.8413613345959956  1.0000
  C   C2458     1.0  0.345452558242744  0.39565960742562156  0.8486177915226719  1.0000
  C   C2459     1.0  0.3506290481523664  0.36371551645140254  0.8779431815600075  1.0000
  C   C2460     1.0  0.35452332942569764  0.35574033818325385  0.9155188706091689  1.0000
  C   C2461     1.0  0.34458436729802316  0.3490521889935822  0.9434803709764591  1.0000
  C   C2462     1.0  0.3308006957736261  0.35019871604895164  0.9307824524204537  1.0000
  C   C2463     1.0  0.3268034894412724  0.35836378000366  0.8933160155154045  1.0000
  C   C2464     1.0  0.3364270216878792  0.36551375649459633  0.8663201631315576  1.0000
  H   H1545     1.0  0.3206597631717786  0.3038581300296255  0.6350580438850773  1.0000
  H   H1546     1.0  0.31944308905084634  0.3483601429413629  0.6462334809489386  1.0000
  H   H1547     1.0  0.29792128222346886  0.3482022204830969  0.5990788458450388  1.0000
  H   H1548     1.0  0.29910027534739386  0.30398245903590876  0.5914452928080398  1.0000
  H   H1549     1.0  0.3479925820125193  0.346518678529365  0.640985853768841  1.0000
  H   H1550     1.0  0.3657530533261139  0.345130084762148  0.5766645349884766  1.0000
  H   H1551     1.0  0.3654261410849981  0.3005714331964513  0.5881642042219613  1.0000
  H   H1552     1.0  0.34734546226612084  0.3017431892987379  0.6436466721173795  1.0000
  H   H1553     1.0  0.31192967143146944  0.3339477171900107  0.7415824086571606  1.0000
  H   H1554     1.0  0.3108411130152784  0.35445926674710126  0.794555601500712  1.0000
  H   H1555     1.0  0.35428227995981915  0.36252824453513166  0.7680778157357195  1.0000
  H   H1556     1.0  0.35558593059652305  0.3422092036112325  0.7200738333179154  1.0000
  H   H1557     1.0  0.29170575575207836  0.3933342642386371  0.900621812120067  1.0000
  H   H1558     1.0  0.31626507594508674  0.38582734017937576  0.8974746455170937  1.0000
  H   H1559     1.0  0.3118172071288995  0.37905329753401407  0.7476758588884493  1.0000
  H   H1560     1.0  0.2873985019695592  0.384695714824176  0.7553939942305674  1.0000
  H   H1561     1.0  0.33907729146556737  0.3864548236238181  0.7362995388499299  1.0000
  H   H1562     1.0  0.35503755842896845  0.40649802356334774  0.7228298067597129  1.0000
  H   H1563     1.0  0.35700682947980994  0.41328133163818254  0.872089381193223  1.0000
  H   H1564     1.0  0.3425613436005119  0.39322183095104013  0.883807554714932  1.0000
  H   H1565     1.0  0.3588075968726137  0.36904837266918394  0.8593315501710915  1.0000
  H   H1566     1.0  0.36569660394081016  0.3549441585148255  0.9250273314096414  1.0000
  H   H1567     1.0  0.3227710965442772  0.34403166050580386  0.948386144673367  1.0000
  H   H1568     1.0  0.3159448231094628  0.35844389538920857  0.8848331151645011  1.0000
  C   C2465     1.0  0.3435635505544053  0.8533543932097366  0.42860320987748707  1.0000
  C   C2466     1.0  0.3507892167511435  0.8470743258248902  0.3919825960236289  1.0000
  C   C2467     1.0  0.34316468373620496  0.8398717966454793  0.35711354073827867  1.0000
  C   C2468     1.0  0.3285526945183325  0.8384976872749893  0.3601831735615595  1.0000
  C   C2469     1.0  0.32200866140345946  0.8449407183138877  0.39799146394979845  1.0000
  C   C2470     1.0  0.32921671008031766  0.8525188928182139  0.430055206115365  1.0000
  H   H1569     1.0  0.36218308044340963  0.8475063022402839  0.3882222077085421  1.0000
  H   H1570     1.0  0.34865072276584413  0.8355238643830266  0.3271781008252716  1.0000
  H   H1571     1.0  0.31068243393130185  0.8453661515519834  0.39993685696753783  1.0000
  H   H1572     1.0  0.3231525796946731  0.8575621954453647  0.4566034771346234  1.0000
  C   C2471     1.0  0.3026998121679987  0.818552895376154  0.37631019973760177  1.0000
  C   C2472     1.0  0.3045431576848814  0.8257755942309501  0.3341977272976145  1.0000
  C   C2473     1.0  0.29271037646276066  0.8273585734973979  0.30565049446737463  1.0000
  C   C2474     1.0  0.279630443419472  0.823292144822709  0.32228712903175943  1.0000
  C   C2475     1.0  0.27803824328977933  0.817055797636868  0.3655999653518953  1.0000
  C   C2476     1.0  0.2896635655073686  0.8146679000331167  0.3928671859646662  1.0000
  C   C2477     1.0  0.31965938550057044  0.831027587214407  0.31852145432260276  1.0000
  C   C2478     1.0  0.32623778704788076  0.8171952244826852  0.2973550848928186  1.0000
  C   C2479     1.0  0.3225025163109769  0.8123589807533426  0.25269175110094766  1.0000
  C   C2480     1.0  0.3303118075129934  0.8023772770455886  0.22877857131242066  1.0000
  C   C2481     1.0  0.34211349393801116  0.7967043200794628  0.24983145948283667  1.0000
  C   C2482     1.0  0.34501545246006865  0.7998060975398869  0.2957571841786102  1.0000
  C   C2483     1.0  0.3370555011200636  0.8097872881689997  0.3180862078775107  1.0000
  C   C2484     1.0  0.3111064193566277  0.8561478558692523  0.2965980732620026  1.0000
  C   C2485     1.0  0.3109614998139164  0.8680295064839529  0.26991447055455364  1.0000
  C   C2486     1.0  0.31733976359781685  0.8683163421104996  0.2260782812214933  1.0000
  C   C2487     1.0  0.3250711665075002  0.8566417845814824  0.2120827291344524  1.0000
  C   C2488     1.0  0.32692730406775283  0.8455618040008739  0.24297112968513476  1.0000
  C   C2489     1.0  0.3188352900500514  0.8443520260569441  0.2838367179771579  1.0000
  C   C2490     1.0  0.3145974512519135  0.8818572455296335  0.19260342426552302  1.0000
  C   C2491     1.0  0.27117995408289625  0.8684360630218282  0.16499928413736115  1.0000
  C   C2492     1.0  0.27390613040156725  0.8782449651135934  0.1994503618649144  1.0000
  C   C2493     1.0  0.28719767729557816  0.8832422482710036  0.2069750151840726  1.0000
  C   C2494     1.0  0.29845844446213776  0.878557517985554  0.17996259876547313  1.0000
  C   C2495     1.0  0.29560803980801126  0.8683940170140548  0.14528984491325356  1.0000
  C   C2496     1.0  0.2819182245328596  0.8639859772923348  0.13703496435990045  1.0000
  C   C2497     1.0  0.32406981631903126  0.8840620810613156  0.1474329490692088  1.0000
  C   C2498     1.0  0.33826032814869783  0.8809831914186528  0.1495048631183555  1.0000
  C   C2499     1.0  0.3467481530269617  0.8824234946696006  0.11116158965023823  1.0000
  C   C2500     1.0  0.34110144843889556  0.8859726550437973  0.06811589244377016  1.0000
  C   C2501     1.0  0.32734214955531327  0.8903250724958001  0.06656028288212132  1.0000
  C   C2502     1.0  0.3191336548679954  0.8897462898794978  0.10606585819308362  1.0000
  C   C2503     1.0  0.3101383756171494  0.9087702107722578  0.20671175275938936  1.0000
  C   C2504     1.0  0.3126534637142285  0.9210979997260641  0.22970897666873077  1.0000
  C   C2505     1.0  0.3220748308530168  0.9215504063182345  0.2663581370505667  1.0000
  C   C2506     1.0  0.3294311173837839  0.9098462258555421  0.27748705384661265  1.0000
  C   C2507     1.0  0.32706176770321194  0.8976055727172723  0.25472877494923274  1.0000
  C   C2508     1.0  0.3173077645005555  0.8965479495359485  0.21806974663179957  1.0000
  H   H1573     1.0  0.31174712065998694  0.8162120370013223  0.39660290444075985  1.0000
  H   H1574     1.0  0.2938013539684236  0.8316908586398625  0.2710820587914686  1.0000
  H   H1575     1.0  0.27071436206299687  0.8252809571150843  0.2999390743142072  1.0000
  H   H1576     1.0  0.28847792986124654  0.8095255896137581  0.42658028308005524  1.0000
  H   H1577     1.0  0.3139029297792219  0.8176520569714104  0.2343211792816212  1.0000
  H   H1578     1.0  0.3278594536060973  0.7998176724916997  0.19223901550096822  1.0000
  H   H1579     1.0  0.35420960321664335  0.7957552661167758  0.3152118192085465  1.0000
  H   H1580     1.0  0.3397743139148019  0.8121843341669672  0.3546888479915311  1.0000
  H   H1581     1.0  0.3053321821571808  0.8565540057904839  0.329683851614425  1.0000
  H   H1582     1.0  0.3056127150333637  0.876980859953197  0.28308182090397  1.0000
  H   H1583     1.0  0.32963483422820644  0.8554234324879642  0.17789738081548168  1.0000
  H   H1584     1.0  0.33345130778422444  0.8371770846336479  0.23051356584617624  1.0000
  H   H1585     1.0  0.26570417766502485  0.8818563128378618  0.22210890412750806  1.0000
  H   H1586     1.0  0.2890325974885178  0.8901618116708179  0.23609670283657969  1.0000
  H   H1587     1.0  0.3039697207748508  0.8633065363731689  0.12483467169901252  1.0000
  H   H1588     1.0  0.2799846945778582  0.8568714761697797  0.10839821525674287  1.0000
  H   H1589     1.0  0.34302000248896836  0.8783509257189929  0.18332580267277143  1.0000
  H   H1590     1.0  0.3575717211522839  0.879360935680358  0.11507739795098135  1.0000
  H   H1591     1.0  0.3229880293433786  0.8940671004851534  0.032830692217234024  1.0000
  H   H1592     1.0  0.30801714156105736  0.893036204656812  0.10460187946198046  1.0000
  H   H1593     1.0  0.3026609327159493  0.9086780285075879  0.17793755741041328  1.0000
  H   H1594     1.0  0.30715413694070165  0.9303653785745868  0.21791749848258518  1.0000
  H   H1595     1.0  0.33671085886750873  0.9106666098667616  0.307086983949314  1.0000
  H   H1596     1.0  0.33286925915028304  0.8883091397101126  0.264254152210729  1.0000
  C   C2509     1.0  0.3389884703705332  0.8753017639570974  0.9475579429357425  1.0000
  C   C2510     1.0  0.34702793089270717  0.8658496815119263  0.9234237918750917  1.0000
  C   C2511     1.0  0.3408148824436212  0.8559124996205479  0.8944790222107922  1.0000
  C   C2512     1.0  0.32623669899804714  0.855515401342533  0.8893406471748067  1.0000
  C   C2513     1.0  0.3182834059380234  0.8649156347862064  0.9153144633717979  1.0000
  C   C2514     1.0  0.32458915839821423  0.8747654774569009  0.9433922644086267  1.0000
  H   H1597     1.0  0.35824521644654056  0.8655973597822653  0.9280899157074955  1.0000
  H   H1598     1.0  0.3472160574333795  0.8490472658062209  0.8711765971504793  1.0000
  H   H1599     1.0  0.30700605027704975  0.8656125528828995  0.9102289522765118  1.0000
  H   H1600     1.0  0.31802437755347146  0.8818338935167971  0.9625184381536838  1.0000
  C   C2515     1.0  0.2981350888875097  0.8376136683540122  0.9016367997814962  1.0000
  C   C2516     1.0  0.30253983429636805  0.842328141656257  0.8585562123741665  1.0000
  C   C2517     1.0  0.29275337253342143  0.8422448703382478  0.821671278816811  1.0000
  C   C2518     1.0  0.2787896172391283  0.8391184461945357  0.8291885311842713  1.0000
  C   C2519     1.0  0.27452514230435127  0.8353558404099451  0.8738691338634375  1.0000
  C   C2520     1.0  0.28421185191694737  0.8347352449733437  0.910577854285128  1.0000
  C   C2521     1.0  0.31905451090626946  0.8460456504326567  0.8495164785145625  1.0000
  C   C2522     1.0  0.3247035399407108  0.8304980838818555  0.840508463019378  1.0000
  C   C2523     1.0  0.32060854712740466  0.8231762542466259  0.8000076359181808  1.0000
  C   C2524     1.0  0.3237298582740331  0.8093363657988065  0.7944674949328796  1.0000
  C   C2525     1.0  0.3309054182574851  0.8025012616721766  0.8285682609467313  1.0000
  C   C2526     1.0  0.3350612576551296  0.809233545161025  0.8688646808105572  1.0000
  C   C2527     1.0  0.33191815469051583  0.8232265942137568  0.874471782787411  1.0000
  C   C2528     1.0  0.31256459138379683  0.8686718654112033  0.8023724161988024  1.0000
  C   C2529     1.0  0.3118565898530715  0.8760188948669896  0.7619914140298575  1.0000
  C   C2530     1.0  0.3197177055331507  0.8720097092837127  0.7221954394713196  1.0000
  C   C2531     1.0  0.3291860399604407  0.8610521835153497  0.7263540694730087  1.0000
  C   C2532     1.0  0.33024261079572187  0.8539667014470881  0.7678839812864883  1.0000
  C   C2533     1.0  0.320926058109531  0.8565873737222315  0.8051389624287398  1.0000
  C   C2534     1.0  0.3166259507659709  0.8789352269629607  0.6725456263664062  1.0000
  C   C2535     1.0  0.270966167015856  0.8693960205145318  0.6708786501030173  1.0000
  C   C2536     1.0  0.2755741783624061  0.8830054060523128  0.6707271068063455  1.0000
  C   C2537     1.0  0.2897984487282599  0.8860336233176481  0.6708892228911572  1.0000
  C   C2538     1.0  0.29988146233825885  0.8755669981453741  0.6686231219665079  1.0000
  C   C2539     1.0  0.2948249561637951  0.8617839727899326  0.6670090096438184  1.0000
  C   C2540     1.0  0.28078974606556845  0.8584929892548144  0.6684116662037101  1.0000
  C   C2541     1.0  0.3254785075437075  0.8729516889743332  0.6284958667129201  1.0000
  C   C2542     1.0  0.33986155834918014  0.8752408232121983  0.6266209589494467  1.0000
  C   C2543     1.0  0.3480920717867327  0.870152343565014  0.5901272185532672  1.0000
  C   C2544     1.0  0.34162440018233875  0.862408494658339  0.5549832707762798  1.0000
  C   C2545     1.0  0.32750953916687253  0.8597878565584212  0.5566960624549416  1.0000
  C   C2546     1.0  0.31945975712660996  0.865440410914672  0.5924743775203222  1.0000
  C   C2547     1.0  0.3162704393933241  0.9039079246533818  0.6386668889034922  1.0000
  C   C2548     1.0  0.3184536325469736  0.9180675016395031  0.6402739527007552  1.0000
  C   C2549     1.0  0.3232665880830164  0.924379324799739  0.6810250024545962  1.0000
  C   C2550     1.0  0.32857989388155767  0.9159751625325772  0.7154077094855115  1.0000
  C   C2551     1.0  0.3273564865196395  0.9017259168194464  0.7122182517299788  1.0000
  C   C2552     1.0  0.32001059945543525  0.8953932984456396  0.675269881443784  1.0000
  H   H1601     1.0  0.3057942484912294  0.8373764084804197  0.9301375123439205  1.0000
  H   H1602     1.0  0.29573741894337885  0.8460052370588569  0.7862700598617532  1.0000
  H   H1603     1.0  0.2715735506488657  0.8398170722264093  0.8002296644691185  1.0000
  H   H1604     1.0  0.2814002744595082  0.8325494148725636  0.9464196060793478  1.0000
  H   H1605     1.0  0.31442066704204036  0.8282807326529438  0.7725501051188921  1.0000
  H   H1606     1.0  0.32041536103463636  0.8037249547818223  0.7626574996826704  1.0000
  H   H1607     1.0  0.339376068464774  0.8033816474323889  0.8976931498053181  1.0000
  H   H1608     1.0  0.33470713831843635  0.8283644130081149  0.9078535992077503  1.0000
  H   H1609     1.0  0.30497536949605  0.871160500851701  0.8302951496762463  1.0000
  H   H1610     1.0  0.30468624093896923  0.8847209127296564  0.7598980019781597  1.0000
  H   H1611     1.0  0.3357189032935452  0.857404191915426  0.6974269211222757  1.0000
  H   H1612     1.0  0.3381791657161694  0.845859139771471  0.7691491916005616  1.0000
  H   H1613     1.0  0.2675360941759623  0.8915215649710805  0.6712416491624866  1.0000
  H   H1614     1.0  0.29321652961411926  0.8967045677021959  0.6757280355965125  1.0000
  H   H1615     1.0  0.3023724051345006  0.8531817084609465  0.6661984292197601  1.0000
  H   H1616     1.0  0.27785548170893765  0.8473930405041749  0.6667940296183072  1.0000
  H   H1617     1.0  0.3443954651802006  0.880739916585124  0.6549278370626398  1.0000
  H   H1618     1.0  0.3593643096224268  0.8728048377978599  0.5896162004598392  1.0000
  H   H1619     1.0  0.3222265915042748  0.8534261672621246  0.5303839170374741  1.0000
  H   H1620     1.0  0.30849868538431563  0.8635347584339719  0.5898311804853502  1.0000
  H   H1621     1.0  0.3120968432409321  0.8989847667920985  0.6074031543738438  1.0000
  H   H1622     1.0  0.3156477868190291  0.9246030186229366  0.6106384275446495  1.0000
  H   H1623     1.0  0.3328369284340027  0.9209043192817301  0.7457621842351295  1.0000
  H   H1624     1.0  0.3319932152022273  0.8955004520653057  0.7405533239448783  1.0000
  C   C2553     1.0  0.34387113344269377  0.7635918653068864  0.22767124796790306  1.0000
  C   C2554     1.0  0.3540906757463905  0.7539425814505428  0.2391335600166268  1.0000
  C   C2555     1.0  0.35029999545588725  0.7423671437227233  0.26561663217568926  1.0000
  C   C2556     1.0  0.33684007013901535  0.7408950536584724  0.2835410323355125  1.0000
  C   C2557     1.0  0.3267211757489293  0.7501373300087636  0.2687303182828862  1.0000
  C   C2558     1.0  0.33008347467318777  0.7616720194260523  0.24273711864097192  1.0000
  H   H1625     1.0  0.364682357069118  0.7545917584296385  0.22590136323328583  1.0000
  H   H1626     1.0  0.35783032984451457  0.7345600322754327  0.2747969841175539  1.0000
  H   H1627     1.0  0.3156180041913781  0.748483298605961  0.2786888274318466  1.0000
  H   H1628     1.0  0.3219607663799232  0.7690976188890534  0.2312025592066256  1.0000
  C   C2559     1.0  0.31365203547420517  0.7391074437166905  0.3636087569188831  1.0000
  C   C2560     1.0  0.31858418812074474  0.7274580049931807  0.3397287051998611  1.0000
  C   C2561     1.0  0.3097741610749557  0.7157307453388099  0.34113136175975295  1.0000
  C   C2562     1.0  0.29650684612752864  0.7159311363950681  0.3607223857566938  1.0000
  C   C2563     1.0  0.29170360811072  0.7283256923538998  0.37936221124731606  1.0000
  C   C2564     1.0  0.3001896627637766  0.7396784160765312  0.38095165373101253  1.0000
  C   C2565     1.0  0.3338961638418651  0.7278222190992606  0.3178215357477422  1.0000
  C   C2566     1.0  0.344451754636089  0.7274664537508861  0.36257614794388743  1.0000
  C   C2567     1.0  0.3443061344334474  0.7164081444413728  0.3923667406593781  1.0000
  C   C2568     1.0  0.3534928818867421  0.7153290875506536  0.42878647153857846  1.0000
  C   C2569     1.0  0.3626720145781632  0.726174433095362  0.43774162309306347  1.0000
  C   C2570     1.0  0.36169842206147135  0.7382208419902366  0.41130965274334386  1.0000
  C   C2571     1.0  0.35245235818862614  0.73920768614578  0.3751683386184939  1.0000
  C   C2572     1.0  0.327609910707926  0.7141507747225337  0.23971153910160736  1.0000
  C   C2573     1.0  0.3277380047666812  0.70248440916991  0.2121468707158344  1.0000
  C   C2574     1.0  0.33497681011264346  0.690672631346604  0.22463121895141397  1.0000
  C   C2575     1.0  0.342759250535839  0.6909555214051584  0.26576852789863226  1.0000
  C   C2576     1.0  0.3436250534657228  0.7031089974971023  0.29139908090734845  1.0000
  C   C2577     1.0  0.3354478901430422  0.714740059842277  0.28121078982948117  1.0000
  C   C2578     1.0  0.33356138989682843  0.6764467311918759  0.1931281869835328  1.0000
  C   C2579     1.0  0.28831945046330737  0.6733099960475397  0.21414900436325782  1.0000
  C   C2580     1.0  0.2935619512907121  0.6768003045190815  0.17075229059054547  1.0000
  C   C2581     1.0  0.30770855826004784  0.6773997041263284  0.16251749833465814  1.0000
  C   C2582     1.0  0.3169937329058323  0.6737800215136863  0.19832612205937297  1.0000
  C   C2583     1.0  0.3115954479495827  0.6695207385581836  0.2413115543734437  1.0000
  C   C2584     1.0  0.29733782748889387  0.6692443382941355  0.24935850342671234  1.0000
  C   C2585     1.0  0.343316216641718  0.6637072025495555  0.21046509254904958  1.0000
  C   C2586     1.0  0.35794263831072465  0.6656939885335934  0.21424592158787348  1.0000
  C   C2587     1.0  0.3665941226869216  0.6548561976542661  0.22537765779409005  1.0000
  C   C2588     1.0  0.3611331088680105  0.6416008854264563  0.23060519667672194  1.0000
  C   C2589     1.0  0.34707067924400226  0.6394237964442874  0.22542664504580487  1.0000
  C   C2590     1.0  0.33821655822902735  0.6502408306013703  0.21497791095342503  1.0000
  C   C2591     1.0  0.3358933666526556  0.6693097544112772  0.10481227794596423  1.0000
  C   C2592     1.0  0.3398505324784853  0.6719610809265223  0.05859509672380114  1.0000
  C   C2593     1.0  0.34713825436543855  0.6840261995351291  0.047829531413496  1.0000
  C   C2594     1.0  0.35161876906393413  0.6926838332207765  0.08357789024581348  1.0000
  C   C2595     1.0  0.3472378298394446  0.6900761569807623  0.1285495970250978  1.0000
  C   C2596     1.0  0.3386739986719982  0.67903004030065  0.1409306843631778  1.0000
  H   H1629     1.0  0.32015442237974917  0.7480082989774536  0.3665938074370448  1.0000
  H   H1630     1.0  0.31280036765832975  0.7061180825726308  0.32316819471008346  1.0000
  H   H1631     1.0  0.28985739169848135  0.7065604964972781  0.3613497045196604  1.0000
  H   H1632     1.0  0.29699063467468584  0.74894938164745  0.39966548873861407  1.0000
  H   H1633     1.0  0.33760791020248665  0.7074428543813169  0.38474728467323227  1.0000
  H   H1634     1.0  0.3534175949067858  0.705988448515012  0.45079549218311166  1.0000
  H   H1635     1.0  0.36863278252660564  0.7470301682401982  0.41668415338112014  1.0000
  H   H1636     1.0  0.3519573743869692  0.7488092597034881  0.35565449597497417  1.0000
  H   H1637     1.0  0.321120658575421  0.7227712098592791  0.22861645522760904  1.0000
  H   H1638     1.0  0.32175213329870456  0.7027456839995124  0.18006903149941464  1.0000
  H   H1639     1.0  0.34898136596081336  0.6823517875483845  0.27985183412723424  1.0000
  H   H1640     1.0  0.3511034210506771  0.7027452009956342  0.3210726681007577  1.0000
  H   H1641     1.0  0.28649123620435174  0.6805937848757067  0.14367397045920738  1.0000
  H   H1642     1.0  0.31055249599446716  0.6812609646822035  0.12773302535442713  1.0000
  H   H1643     1.0  0.31847753057948447  0.6667884494229589  0.2707261082574257  1.0000
  H   H1644     1.0  0.2936245804959669  0.6661727886267799  0.2838085238754516  1.0000
  H   H1645     1.0  0.36268137927003885  0.6758987249621252  0.20783211587594616  1.0000
  H   H1646     1.0  0.37795821056927653  0.6567372529535637  0.22656181006575749  1.0000
  H   H1647     1.0  0.3425741472583966  0.6288599741635319  0.22748058535511376  1.0000
  H   H1648     1.0  0.32701407780244807  0.6477991796065496  0.2090582068739018  1.0000
  H   H1649     1.0  0.33038440276198944  0.6595568628894743  0.11375579943349538  1.0000
  H   H1650     1.0  0.3369572641728452  0.66496674229271  0.031774646895194894  1.0000
  H   H1651     1.0  0.3580873394929915  0.7019345398467327  0.07536494841874859  1.0000
  H   H1652     1.0  0.3507216715309943  0.6974912202671493  0.15573153048020683  1.0000
  C   C2597     1.0  0.33691853121158016  0.7645856042999454  0.7730822687885998  1.0000
  C   C2598     1.0  0.34631777546303427  0.7555365243022703  0.7949855615517342  1.0000
  C   C2599     1.0  0.34329081495781943  0.7416810887275813  0.7997362676892571  1.0000
  C   C2600     1.0  0.3299931393578489  0.7364698009020858  0.7856427410987866  1.0000
  C   C2601     1.0  0.3210201876317877  0.7454951237309793  0.7616354634958146  1.0000
  C   C2602     1.0  0.3244217398220372  0.7593648877291754  0.7557851873917433  1.0000
  H   H1653     1.0  0.3555264901461779  0.7600897316554216  0.8110139083718041  1.0000
  H   H1654     1.0  0.35108463896414854  0.7350313603566568  0.8167831264334695  1.0000
  H   H1655     1.0  0.3104372413385619  0.7429603795165266  0.7500371149063576  1.0000
  H   H1656     1.0  0.3167463236296395  0.7662535991268077  0.7414661079876219  1.0000
  C   C2603     1.0  0.3019477691032459  0.7280357427174685  0.837830023357273  1.0000
  C   C2604     1.0  0.3088009222728362  0.7185151611521723  0.8094667570406672  1.0000
  C   C2605     1.0  0.3019623887911956  0.7059687072033142  0.8011353999864356  1.0000
  C   C2606     1.0  0.2889766089611292  0.7029779254444307  0.8194016536294485  1.0000
  C   C2607     1.0  0.282491922616951  0.7122713644185168  0.8492098676585056  1.0000
  C   C2608     1.0  0.2891983283070459  0.7247383830135269  0.858408193340208  1.0000
  C   C2609     1.0  0.3253490419456036  0.7205655152718442  0.7957749963995124  1.0000
  C   C2610     1.0  0.3318712119635907  0.7131836372667497  0.8419075953165565  1.0000
  C   C2611     1.0  0.33200387687175104  0.6986692206211672  0.8458124784028884  1.0000
  C   C2612     1.0  0.33309048109259787  0.6922826393361394  0.8883785234540769  1.0000
  C   C2613     1.0  0.33580027948247315  0.6998863722063465  0.9281075370210622  1.0000
  C   C2614     1.0  0.3369064788626669  0.7142384723960742  0.9250132343587882  1.0000
  C   C2615     1.0  0.3345053271897572  0.7204992477156053  0.8826374994941177  1.0000
  C   C2616     1.0  0.31847632768353085  0.7140227897645753  0.7092367254745304  1.0000
  C   C2617     1.0  0.31981190004296534  0.7057375890807835  0.6704804084164148  1.0000
  C   C2618     1.0  0.3310685318925328  0.6967371844257457  0.664552598532651  1.0000
  C   C2619     1.0  0.3418640632436737  0.6982634544289896  0.69732471750359  1.0000
  C   C2620     1.0  0.34065358401224555  0.7063967465814232  0.7366413923331198  1.0000
  C   C2621     1.0  0.3282108456470532  0.7135046871460271  0.7450220890653375  1.0000
  C   C2622     1.0  0.3327281497211338  0.6864704921471484  0.6189310177090349  1.0000
  C   C2623     1.0  0.2961379478590135  0.6667376184299212  0.550983232596689  1.0000
  C   C2624     1.0  0.3074676159879475  0.6710725799138547  0.524678135704648  1.0000
  C   C2625     1.0  0.31863343788916015  0.6778204741820381  0.5451646748570373  1.0000
  C   C2626     1.0  0.3186621738472927  0.681010133847595  0.5936338599529966  1.0000
  C   C2627     1.0  0.307278148727763  0.6764254413518828  0.6196499673025473  1.0000
  C   C2628     1.0  0.29609904637544754  0.6698283736165146  0.5985008667600582  1.0000
  C   C2629     1.0  0.3395191848286795  0.6718418670230978  0.6329258649435331  1.0000
  C   C2630     1.0  0.3364742109605143  0.6658844796731523  0.6760945589186953  1.0000
  C   C2631     1.0  0.34219261794985767  0.6534065321403182  0.6882074498642934  1.0000
  C   C2632     1.0  0.3500793353052539  0.645907158436964  0.6565560464361825  1.0000
  C   C2633     1.0  0.3525194215197067  0.6511477213029727  0.6120657539435345  1.0000
  C   C2634     1.0  0.3470300180830434  0.6641630201234527  0.6009290837695193  1.0000
  C   C2635     1.0  0.3567052927480389  0.6963012498904041  0.5880831461795554  1.0000
  C   C2636     1.0  0.3644274587910392  0.7070958401829982  0.5698697564772419  1.0000
  C   C2637     1.0  0.3580169575406742  0.7181692668320481  0.5478924541971284  1.0000
  C   C2638     1.0  0.34352118173098284  0.7184394164706462  0.5464545550101036  1.0000
  C   C2639     1.0  0.3354241593467722  0.7079598376195119  0.5657252235264059  1.0000
  C   C2640     1.0  0.34176791969374554  0.6967721371613969  0.587875214679471  1.0000
  H   H1657     1.0  0.3064774277488926  0.7379760627721426  0.8473173385814657  1.0000
  H   H1658     1.0  0.3075546067867252  0.6976275469347171  0.7839123281065583  1.0000
  H   H1659     1.0  0.2848520518494793  0.6926961604534057  0.8114438684228262  1.0000
  H   H1660     1.0  0.2847842183513778  0.7321004241232716  0.883807554714932  1.0000
  H   H1661     1.0  0.32968903578802417  0.6920993474548464  0.8147108599580516  1.0000
  H   H1662     1.0  0.33131045882376164  0.6810422321161236  0.8902886738446832  1.0000
  H   H1663     1.0  0.33825870940154945  0.7205061183509216  0.9556672714390365  1.0000
  H   H1664     1.0  0.3326293529165085  0.7317508527386934  0.8829159162484681  1.0000
  H   H1665     1.0  0.3093563791309902  0.7201494513812201  0.7126482117810008  1.0000
  H   H1666     1.0  0.3115381954296604  0.7062642303873884  0.6448660670161798  1.0000
  H   H1667     1.0  0.3516647268784979  0.6926088692880772  0.6908999865772515  1.0000
  H   H1668     1.0  0.34910045950139207  0.7063649893281809  0.761653084809381  1.0000
  H   H1669     1.0  0.3081343279502344  0.6689636105653733  0.48693328204524833  1.0000
  H   H1670     1.0  0.3275120520618418  0.6807043836743119  0.5240155743145484  1.0000
  H   H1671     1.0  0.30683289423235366  0.678525027702259  0.6575710340976118  1.0000
  H   H1672     1.0  0.28731170307669307  0.6667822024576513  0.6206297123368435  1.0000
  H   H1673     1.0  0.33041232809752863  0.6710097686004236  0.7031749936076613  1.0000
  H   H1674     1.0  0.340093687434938  0.649229410998818  0.7225513900053624  1.0000
  H   H1675     1.0  0.35783734788596067  0.6446417065966632  0.5870575857299862  1.0000
  H   H1676     1.0  0.3487820746075951  0.6679129252717428  0.5656124471195805  1.0000
  H   H1677     1.0  0.36254187851249375  0.688074180642474  0.6057467508985948  1.0000
  H   H1678     1.0  0.37560363667737884  0.7067409593421399  0.5720160324696392  1.0000
  H   H1679     1.0  0.33830073769728575  0.7266522576526072  0.5269618579428638  1.0000
  H   H1680     1.0  0.3240318469083093  0.7084306541210367  0.565298787738097  1.0000
  C   C2641     1.0  0.1572509411126167  0.8507499416586106  0.8430071652831048  1.0000
  C   C2642     1.0  0.15470777240360692  0.8395989265105334  0.871553693260802  1.0000
  C   C2643     1.0  0.16496878767298476  0.8344098869769666  0.9002447160097443  1.0000
  C   C2644     1.0  0.17845228088680862  0.8399343687982759  0.9000685028740796  1.0000
  C   C2645     1.0  0.1806915743668033  0.8515473550694395  0.8729316799817007  1.0000
  C   C2646     1.0  0.1699102320180823  0.8576659854034867  0.8483076564039018  1.0000
  H   H1681     1.0  0.1446365291209676  0.8340677677841956  0.8705457541247993  1.0000
  H   H1682     1.0  0.1627395671031384  0.8255069665988032  0.9232687243157068  1.0000
  H   H1683     1.0  0.19070975074641125  0.8564055078357736  0.8718920224812784  1.0000
  H   H1684     1.0  0.17253070611415744  0.8665902192998041  0.8263197813356484  1.0000
  C   C2647     1.0  0.20986738990286047  0.835054041060711  0.8682655561492969  1.0000
  C   C2648     1.0  0.20613122936650713  0.8357646510348766  0.9151699686005527  1.0000
  C   C2649     1.0  0.21696621431818516  0.8383386546922924  0.9475896613001621  1.0000
  C   C2650     1.0  0.23033727723957506  0.8411901592858861  0.9332600091079009  1.0000
  C   C2651     1.0  0.23361716488826806  0.8402563911403307  0.8871485557671366  1.0000
  C   C2652     1.0  0.22352633006909708  0.8374219220939332  0.8536821570416782  1.0000
  C   C2653     1.0  0.19040196872053797  0.8331617487448029  0.9327807093788926  1.0000
  C   C2654     1.0  0.1908868981527244  0.8165018305048979  0.9383560929913267  1.0000
  C   C2655     1.0  0.19847528398350903  0.809928526024702  0.9743846307093512  1.0000
  C   C2656     1.0  0.1996380590451647  0.7956202146813889  0.9766613044221404  1.0000
  C   C2657     1.0  0.1934488219154419  0.7874654859138505  0.9424054708489038  1.0000
  C   C2658     1.0  0.18617124921464126  0.7939140995289404  0.9067716505547684  1.0000
  C   C2659     1.0  0.18528664249190072  0.8080806580064828  0.9040262499011108  1.0000
  C   C2660     1.0  0.19159583353053392  0.8556732953755543  0.9817468155174265  1.0000
  C   C2661     1.0  0.19081484400067025  0.8628940364155043  0.02356501787508051  1.0000
  C   C2662     1.0  0.18570637612102558  0.8566377953621824  0.06374792123691114  1.0000
  C   C2663     1.0  0.1814097798714675  0.8430086037453034  0.061040582620557206  1.0000
  C   C2664     1.0  0.18192644040619282  0.8357641750434482  0.01986845395773152  1.0000
  C   C2665     1.0  0.1877758364414417  0.8415607201296283  0.97952653000805  1.0000
  C   C2666     1.0  0.1871863470739822  0.864630242959815  0.11187736740730864  1.0000
  C   C2667     1.0  0.23346515992141958  0.8648965902140597  0.11489202173226198  1.0000
  C   C2668     1.0  0.22621361835858547  0.876847001012266  0.10619766561856088  1.0000
  C   C2669     1.0  0.21183579060030297  0.876578934010562  0.10435024710425114  1.0000
  C   C2670     1.0  0.2042644870827449  0.8645598527122396  0.11476338614322669  1.0000
  C   C2671     1.0  0.21199805529101157  0.8521636265752953  0.12335201437552892  1.0000
  C   C2672     1.0  0.2264343138556187  0.8525033235705444  0.12290267087958369  1.0000
  C   C2673     1.0  0.17949429057200392  0.8574870346800131  0.15653189054239633  1.0000
  C   C2674     1.0  0.16506952425669813  0.8543957088580401  0.1558302098361791  1.0000
  C   C2675     1.0  0.15846669361227483  0.8481419509853855  0.1939644945253979  1.0000
  C   C2676     1.0  0.1659653255775921  0.8447730531647261  0.23331570712951785  1.0000
  C   C2677     1.0  0.18012454832976593  0.8475509145676726  0.23449809726982862  1.0000
  C   C2678     1.0  0.18662319481884945  0.8544018929093515  0.19759342784127876  1.0000
  C   C2679     1.0  0.1839798555461465  0.8902146042451422  0.14001472848399218  1.0000
  C   C2680     1.0  0.17985128139185858  0.9040079069933903  0.13449855248514136  1.0000
  C   C2681     1.0  0.17000426460846377  0.907400487992627  0.10026139750428517  1.0000
  C   C2682     1.0  0.16436628887992363  0.8967104483642839  0.07208879380046868  1.0000
  C   C2683     1.0  0.1690112814308962  0.8831856573486401  0.07758699605948169  1.0000
  C   C2684     1.0  0.1799028469962963  0.879801559547969  0.10886976160778188  1.0000
  H   H1685     1.0  0.20185789525717443  0.8331377448921132  0.8424750016133972  1.0000
  H   H1686     1.0  0.21493237328621076  0.838113441944834  0.9841397898997545  1.0000
  H   H1687     1.0  0.2385464377174932  0.8436632894751139  0.9586487976944849  1.0000
  H   H1688     1.0  0.22638738013243548  0.8373040154975661  0.8167302624927701  1.0000
  H   H1689     1.0  0.2037073819960725  0.8162063675061946  0.0008941348387632164  1.0000
  H   H1690     1.0  0.20551893920172343  0.790959628461202  0.004763775297962347  1.0000
  H   H1691     1.0  0.18116686871029478  0.7875890497060639  0.8802374765863633  1.0000
  H   H1692     1.0  0.18005259743623475  0.8122914557930934  0.8732664849394638  1.0000
  H   H1693     1.0  0.19550102142125106  0.8615623803808161  0.9511491666405911  1.0000
  H   H1694     1.0  0.19475516651978467  0.8734293423380529  0.024143983753620767  1.0000
  H   H1695     1.0  0.17888905600262153  0.8374630956883776  0.09345287436846873  1.0000
  H   H1696     1.0  0.178246227140219  0.8251625106516158  0.021669739873124212  1.0000
  H   H1697     1.0  0.23172914642843964  0.8868294865130233  0.10013945801440513  1.0000
  H   H1698     1.0  0.2067294532517461  0.8862152545198123  0.09496372579365871  1.0000
  H   H1699     1.0  0.20701562590862962  0.8424027035733258  0.13016758603677198  1.0000
  H   H1700     1.0  0.2320988050210696  0.8432034302294509  0.12822113574021862  1.0000
  H   H1701     1.0  0.1587583845839348  0.8571978155541765  0.12499995962026611  1.0000
  H   H1702     1.0  0.14756062616865198  0.845841784021806  0.19092199852500955  1.0000
  H   H1703     1.0  0.1870644711014873  0.8451466277297777  0.2629790739610586  1.0000
  H   H1704     1.0  0.19749492643095057  0.8569858784740065  0.20253937813311831  1.0000
  H   H1705     1.0  0.19086435946679403  0.8875965269386262  0.1690652260296907  1.0000
  H   H1706     1.0  0.18377642166370553  0.9118485231904945  0.15751833167584786  1.0000
  H   H1707     1.0  0.1566244873612333  0.8986306355212239  0.04512254522341338  1.0000
  H   H1708     1.0  0.1642109522849007  0.8754277183918178  0.05399417175159328  1.0000
  C   C2685     1.0  0.1681879931191299  0.8394596236191126  0.3572474627213839  1.0000
  C   C2686     1.0  0.16417369744211263  0.8294297467202287  0.38862397365785784  1.0000
  C   C2687     1.0  0.1729033954045502  0.8250810528249449  0.42434590051982557  1.0000
  C   C2688     1.0  0.18661888703674373  0.8301831146388576  0.4250507530624848  1.0000
  C   C2689     1.0  0.1901379108102384  0.8413356237569632  0.39463989010945405  1.0000
  C   C2690     1.0  0.18090225681235358  0.8459484981699426  0.36171975210455654  1.0000
  H   H1709     1.0  0.1533895344577435  0.825642437489203  0.3861781353348305  1.0000
  H   H1710     1.0  0.16916437628966377  0.81788768462032  0.45014702784386523  1.0000
  H   H1711     1.0  0.20022714074706507  0.8469226057210799  0.39636325457625576  1.0000
  H   H1712     1.0  0.18363856756291178  0.8547676505201697  0.339139448474198  1.0000
  C   C2691     1.0  0.2172652455556964  0.8210829845389742  0.4059210550547143  1.0000
  C   C2692     1.0  0.21361803501747356  0.8253822329967514  0.4507073856152793  1.0000
  C   C2693     1.0  0.2248384940240286  0.8285041030725064  0.4809455596953585  1.0000
  C   C2694     1.0  0.23846932712314822  0.8292091278551023  0.4652661148839049  1.0000
  C   C2695     1.0  0.24139605165945413  0.8265444107819614  0.41832293554280275  1.0000
  C   C2696     1.0  0.23071864496658342  0.8220940166345616  0.38940635998020956  1.0000
  C   C2697     1.0  0.19748566008633203  0.8256787196442724  0.46581589986717903  1.0000
  C   C2698     1.0  0.19607661687232783  0.8105093708945631  0.4910919120469376  1.0000
  C   C2699     1.0  0.20071452393276726  0.8086951427016329  0.5375522673963181  1.0000
  C   C2700     1.0  0.1975255044093704  0.7968553071006693  0.5638009760849464  1.0000
  C   C2701     1.0  0.190265768850484  0.7861776385646878  0.5414395291690836  1.0000
  C   C2702     1.0  0.18613973918905163  0.7872714870364396  0.49563468668437605  1.0000
  C   C2703     1.0  0.18952056890820315  0.7990737598260211  0.46999567544514803  1.0000
  C   C2704     1.0  0.2006955049180673  0.8512105690427431  0.5002232767370874  1.0000
  C   C2705     1.0  0.19789792258996977  0.8610141828196202  0.53453902277645  1.0000
  C   C2706     1.0  0.1882466280920062  0.8585430356961082  0.5703279106299705  1.0000
  C   C2707     1.0  0.18097235236116332  0.8462304413728912  0.5683367021969582  1.0000
  C   C2708     1.0  0.1836619926522078  0.8363085259922933  0.5347117116494016  1.0000
  C   C2709     1.0  0.19397211450146087  0.8382970277721093  0.5016893700258185  1.0000
  C   C2710     1.0  0.18754400860948087  0.8684981383111015  0.615741559953502  1.0000
  C   C2711     1.0  0.23254587742256494  0.8650891948215206  0.6318439162905513  1.0000
  C   C2712     1.0  0.22663284451041474  0.8781318758549452  0.6275266944667638  1.0000
  C   C2713     1.0  0.21222677890944416  0.879343123249261  0.6268218419241046  1.0000
  C   C2714     1.0  0.20352784563116325  0.8679254194753617  0.6318685861295443  1.0000
  C   C2715     1.0  0.2097960737036608  0.854893024321478  0.6387972866238841  1.0000
  C   C2716     1.0  0.22413435768631865  0.853526259421292  0.6386351705390725  1.0000
  C   C2717     1.0  0.17690654200267836  0.8631915074197224  0.6570318219024774  1.0000
  C   C2718     1.0  0.16237621268735503  0.8632348132568396  0.6482458349582306  1.0000
  C   C2719     1.0  0.15284907203815365  0.8587352151211665  0.681151875912275  1.0000
  C   C2720     1.0  0.1577906023906322  0.8535588563040627  0.7230870779377834  1.0000
  C   C2721     1.0  0.17197441182301695  0.8523213695496186  0.7302166614067811  1.0000
  C   C2722     1.0  0.1813064244128633  0.8582492363379691  0.6995344302248266  1.0000
  C   C2723     1.0  0.18188731528890043  0.8938680475721242  0.6391673342087802  1.0000
  C   C2724     1.0  0.17543053275982567  0.9066303170577135  0.6337505424184444  1.0000
  C   C2725     1.0  0.16894585963406553  0.9095692924743494  0.5915474964267253  1.0000
  C   C2726     1.0  0.1699837047684597  0.9003785504577224  0.5549691737254266  1.0000
  C   C2727     1.0  0.17618174111049748  0.8875200861000231  0.5613234193974993  1.0000
  C   C2728     1.0  0.1823166565553198  0.8838488050079321  0.6029837289313708  1.0000
  H   H1713     1.0  0.20920211121379617  0.8171294662630217  0.38255166900284887  1.0000
  H   H1714     1.0  0.22265212078370838  0.8324293722649497  0.5174886397695243  1.0000
  H   H1715     1.0  0.2467547522090396  0.8325961414686764  0.48832536581700026  1.0000
  H   H1716     1.0  0.2333340682690927  0.8198005581232078  0.3520216859701087  1.0000
  H   H1717     1.0  0.20611934707897553  0.8171816454059814  0.5566114801498226  1.0000
  H   H1718     1.0  0.20059690280694592  0.7962723737809934  0.6002066099132936  1.0000
  H   H1719     1.0  0.18099915195766356  0.7782350657780828  0.47889796305893356  1.0000
  H   H1720     1.0  0.18655070368091534  0.7997488259798605  0.43306492647251976  1.0000
  H   H1721     1.0  0.20846783308145958  0.853411564423667  0.4723428344122031  1.0000
  H   H1722     1.0  0.20391271808941996  0.8705064513592147  0.5337777820303782  1.0000
  H   H1723     1.0  0.17226585712019635  0.8439628985605249  0.5915369236385856  1.0000
  H   H1724     1.0  0.17734137412114195  0.8267886197354121  0.5343416640645055  1.0000
  H   H1725     1.0  0.23269442964303863  0.8875786262619371  0.6222438246595331  1.0000
  H   H1726     1.0  0.20817765173296743  0.8895710584773413  0.6175495067254229  1.0000
  H   H1727     1.0  0.2032979262412368  0.8456677918322437  0.638222831801617  1.0000
  H   H1728     1.0  0.22854782401616217  0.8430751189543135  0.6388395777764437  1.0000
  H   H1729     1.0  0.15849797162381848  0.8670206571219781  0.6137820698849096  1.0000
  H   H1730     1.0  0.1416552141455542  0.8589910898051835  0.6745015921722854  1.0000
  H   H1731     1.0  0.17578133534595441  0.8477113564659676  0.7622557337333545  1.0000
  H   H1732     1.0  0.1923665687783303  0.8573714721573661  0.7097512678306716  1.0000
  H   H1733     1.0  0.18657040954702028  0.8914363042287035  0.6735535655024089  1.0000
  H   H1734     1.0  0.17451624092357418  0.9138007457459403  0.6634248344643963  1.0000
  H   H1735     1.0  0.1649704592457871  0.9024173467725272  0.521784716017032  1.0000
  H   H1736     1.0  0.17498925074653543  0.880230529492771  0.5330271140724461  1.0000
  C   C2729     1.0  0.1909928161660002  0.7479287367969285  0.9823882313312463  1.0000
  C   C2730     1.0  0.18109448525733815  0.7382703564139611  0.9690030815461483  1.0000
  C   C2731     1.0  0.18508352343809784  0.7242804152422518  0.9632761546370424  1.0000
  C   C2732     1.0  0.19894881784762977  0.7202518142925121  0.9671669406725212  1.0000
  C   C2733     1.0  0.20806011988660172  0.7300628669216723  0.9855882618749191  1.0000
  C   C2734     1.0  0.20436767819645094  0.7437394801909409  0.9922174000386288  1.0000
  H   H1737     1.0  0.17039466206130632  0.7413931682482802  0.9632867274251823  1.0000
  H   H1738     1.0  0.17713422910392632  0.716469112351408  0.9530381714549176  1.0000
  H   H1739     1.0  0.21915120106874106  0.727264541894355  0.989232349520467  1.0000
  H   H1740     1.0  0.21218633497647313  0.7516580810171958  0.0034139826787700223  1.0000
  C   C2735     1.0  0.22338901771716826  0.7155948081102039  0.8994517568992527  1.0000
  C   C2736     1.0  0.2189584168837179  0.7047388970537952  0.9291225246824913  1.0000
  C   C2737     1.0  0.2281296138834467  0.6933895826425943  0.9315824600563719  1.0000
  C   C2738     1.0  0.24062657450762703  0.6927286777035089  0.9053654697321633  1.0000
  C   C2739     1.0  0.2437148718996916  0.7032780769291067  0.8749722280926991  1.0000
  C   C2740     1.0  0.23543341785645164  0.7148760095345817  0.8726039235493641  1.0000
  C   C2741     1.0  0.20405006371581097  0.7048152046962312  0.9542223237265851  1.0000
  C   C2742     1.0  0.1955584049552958  0.6973267283280887  0.9141162140492771  1.0000
  C   C2743     1.0  0.19527351800665452  0.6826692940978597  0.9136474871084087  1.0000
  C   C2744     1.0  0.19224921330854994  0.6753471323027087  0.8721210995576427  1.0000
  C   C2745     1.0  0.18927421922133011  0.6825208152916931  0.8308801772866534  1.0000
  C   C2746     1.0  0.18807329598618316  0.6969268533236606  0.8323956102533706  1.0000
  C   C2747     1.0  0.19117435205603664  0.7041103062132538  0.8731360872190718  1.0000
  C   C2748     1.0  0.21561435405361837  0.699349353194495  0.03432536727656997  1.0000
  C   C2749     1.0  0.2166995209096179  0.692295209694649  0.07545904623319359  1.0000
  C   C2750     1.0  0.20566701646544233  0.6838347164851857  0.09136615841592621  1.0000
  C   C2751     1.0  0.19376663364162805  0.6831984631990312  0.0635378751791987  1.0000
  C   C2752     1.0  0.19257042194862986  0.6900834103095225  0.02140376376615177  1.0000
  C   C2753     1.0  0.20423759072238856  0.6977295071635816  0.004802542187808623  1.0000
  C   C2754     1.0  0.20670937004429524  0.6764401773871116  0.14050777283758228  1.0000
  C   C2755     1.0  0.24893210734902327  0.6649883446756683  0.1923902063713686  1.0000
  C   C2756     1.0  0.23852841304200367  0.6692212135682167  0.22329904764578812  1.0000
  C   C2757     1.0  0.22541035956856556  0.6733455669266927  0.20738911605288488  1.0000
  C   C2758     1.0  0.22199890779402304  0.6727888253909579  0.15949861489444886  1.0000
  C   C2759     1.0  0.23241078904522977  0.6680485771142914  0.12947471598733798  1.0000
  C   C2760     1.0  0.24540243552152127  0.6640040193490832  0.1456299362650866  1.0000
  C   C2761     1.0  0.19950590175721467  0.6611692097021089  0.14025860746375227  1.0000
  C   C2762     1.0  0.20090763258424685  0.6519140407374499  0.10230864171443879  1.0000
  C   C2763     1.0  0.19434866223019975  0.6392797559884508  0.10130810353013407  1.0000
  C   C2764     1.0  0.1855106922920592  0.6355448164171669  0.13749241366008627  1.0000
  C   C2765     1.0  0.18514102795343024  0.6437578739146281  0.17696098421255893  1.0000
  C   C2766     1.0  0.1924966699033886  0.6561334024961326  0.17895360235065647  1.0000
  C   C2767     1.0  0.18368709572647798  0.6880600185263184  0.17339795460941673  1.0000
  C   C2768     1.0  0.17684854512735387  0.6992945837728481  0.1923126725916761  1.0000
  C   C2769     1.0  0.18403808279840256  0.7107652525030611  0.20830295737444252  1.0000
  C   C2770     1.0  0.19847943570484602  0.7109206130852113  0.2054468948715875  1.0000
  C   C2771     1.0  0.20571869026567555  0.7000286354983444  0.1852923412667906  1.0000
  C   C2772     1.0  0.19841296211178386  0.6880630117170127  0.16968549626723078  1.0000
  H   H1741     1.0  0.21658486489726872  0.7247874699231743  0.8966182496777627  1.0000
  H   H1742     1.0  0.22553750735641218  0.6849209979531166  0.9548919336421113  1.0000
  H   H1743     1.0  0.24756141192540593  0.6840328494391454  0.9103769713104702  1.0000
  H   H1744     1.0  0.2378295109612846  0.723412746256056  0.8492133919212189  1.0000
  H   H1745     1.0  0.1989647565032095  0.6762919367925634  0.9425922567727084  1.0000
  H   H1746     1.0  0.19387959535680788  0.6641087600072686  0.8705986180654988  1.0000
  H   H1747     1.0  0.18520982148459825  0.7026572866888401  0.8009697596389107  1.0000
  H   H1748     1.0  0.19180183388682892  0.7154733864059973  0.871077917794507  1.0000
  H   H1749     1.0  0.22443024442234508  0.7056247910763072  0.024266945279687663  1.0000
  H   H1750     1.0  0.22596939555501103  0.6935683075778155  0.09731758085986907  1.0000
  H   H1751     1.0  0.18528871539098354  0.6768720276610045  0.07806453365713328  1.0000
  H   H1752     1.0  0.18315064365666903  0.6886070687439121  0.000996338457448953  1.0000
  H   H1753     1.0  0.2411020812859602  0.6696394170323595  0.26121553289932525  1.0000
  H   H1754     1.0  0.21769287797861417  0.676392836150436  0.23398989858657138  1.0000
  H   H1755     1.0  0.23039355396249436  0.666620825122098  0.09322238758701919  1.0000
  H   H1756     1.0  0.25249971214208866  0.6592591194297539  0.12067498441850931  1.0000
  H   H1757     1.0  0.20682560626978516  0.6552868729086362  0.0718664128232597  1.0000
  H   H1758     1.0  0.19519469911526877  0.6330317162707233  0.06965740495456581  1.0000
  H   H1759     1.0  0.17823695740646214  0.6412605049938508  0.2062747441829407  1.0000
  H   H1760     1.0  0.19245884301103122  0.6624979038761706  0.21070967638135232  1.0000
  H   H1761     1.0  0.17775042407058822  0.6792774254494356  0.1598848740878261  1.0000
  H   H1762     1.0  0.1653221607353614  0.6989618272418231  0.1947599206197888  1.0000
  H   H1763     1.0  0.2040538190240319  0.7202688508612943  0.216614930983751  1.0000
  H   H1764     1.0  0.21699593603670603  0.7006039567994932  0.18043907908431073  1.0000
  C   C2773     1.0  0.1992345765074842  0.7523464093623757  0.5443223760685596  1.0000
  C   C2774     1.0  0.1889425933759176  0.7437208245900471  0.5265636162562614  1.0000
  C   C2775     1.0  0.1921874080850705  0.7339604781095685  0.4930584506409567  1.0000
  C   C2776     1.0  0.2058889798053673  0.7328229040646922  0.47510585637942715  1.0000
  C   C2777     1.0  0.21610799468974623  0.7414416670581757  0.4944716799889884  1.0000
  C   C2778     1.0  0.21266585465211396  0.7511800871550423  0.528286980723063  1.0000
  H   H1765     1.0  0.1781249344625211  0.7441953930148071  0.5377214320065563  1.0000
  H   H1766     1.0  0.183651141916286  0.727143784879536  0.4803711048730913  1.0000
  H   H1767     1.0  0.22675359577659787  0.7405290867145274  0.48463193849346614  1.0000
  H   H1768     1.0  0.22032181927368258  0.7586230276427997  0.54114701536388  1.0000
  C   C2779     1.0  0.22849223706830415  0.7352710438366613  0.3941887844821521  1.0000
  C   C2780     1.0  0.2245949515014389  0.7224481966666693  0.41335724937976875  1.0000
  C   C2781     1.0  0.23359135023497357  0.7112532878169323  0.40677392663133194  1.0000
  C   C2782     1.0  0.2471273416199088  0.713271173990213  0.38999138759061663  1.0000
  C   C2783     1.0  0.25119991154321447  0.7263258513895895  0.37413572964349817  1.0000
  C   C2784     1.0  0.24163883689594337  0.7371764526533076  0.3766485289580782  1.0000
  C   C2785     1.0  0.20952272013463144  0.7205607482557991  0.43777334145748314  1.0000
  C   C2786     1.0  0.1987995360334615  0.7201618969682542  0.3948372488213986  1.0000
  C   C2787     1.0  0.19786234059951857  0.7088134639085848  0.36439466750394817  1.0000
  C   C2788     1.0  0.18866942353811703  0.7085958224087545  0.327165765905775  1.0000
  C   C2789     1.0  0.18051073810082433  0.7200171276730342  0.31704619795081707  1.0000
  C   C2790     1.0  0.18232996701594756  0.7321792787012763  0.34355288267005857  1.0000
  C   C2791     1.0  0.19184417501746992  0.732223843343148  0.380754295019068  1.0000
  C   C2792     1.0  0.21898506061320652  0.7075919530124308  0.5115291115213408  1.0000
  C   C2793     1.0  0.21934915602502533  0.6967134867267497  0.5428069431018423  1.0000
  C   C2794     1.0  0.21154042559047972  0.6847073789437003  0.5349830798783254  1.0000
  C   C2795     1.0  0.20287583517409116  0.6843421563606584  0.4954831433877044  1.0000
  C   C2796     1.0  0.20109552183065194  0.6959570418141253  0.46773309878321206  1.0000
  C   C2797     1.0  0.20969066663517727  0.7077119690421979  0.47403095625187186  1.0000
  C   C2798     1.0  0.21378697687239345  0.6705221339451016  0.5642344603986819  1.0000
  C   C2799     1.0  0.2581464037493053  0.6667003435985922  0.5233353916108823  1.0000
  C   C2800     1.0  0.25462837318623643  0.6712062041593434  0.568058285442608  1.0000
  C   C2801     1.0  0.24084680195493077  0.6717485240590448  0.5811368243716492  1.0000
  C   C2802     1.0  0.23002757289956932  0.6675172077820001  0.5517832402326072  1.0000
  C   C2803     1.0  0.23393259753924156  0.6621327176479339  0.5081281980030102  1.0000
  C   C2804     1.0  0.2478270153910859  0.6615376127634515  0.4939994287854067  1.0000
  C   C2805     1.0  0.2023480754614908  0.6586355513032514  0.5562590538784931  1.0000
  C   C2806     1.0  0.18801932583736483  0.6619491667232213  0.5599630539901671  1.0000
  C   C2807     1.0  0.17783474538348315  0.6522782909848021  0.5500986426556517  1.0000
  C   C2808     1.0  0.18141854925279916  0.6387527300751719  0.537027152252037  1.0000
  C   C2809     1.0  0.19560007251550884  0.6352719395236149  0.5353249333615151  1.0000
  C   C2810     1.0  0.2057990089427759  0.6451711768249508  0.5442695121278602  1.0000
  C   C2811     1.0  0.21513595274846653  0.6610706845282707  0.6489260176618967  1.0000
  C   C2812     1.0  0.21227586601009826  0.661624122083071  0.6963308754184405  1.0000
  C   C2813     1.0  0.20720788217420685  0.6736288685718278  0.7161442803925904  1.0000
  C   C2814     1.0  0.2044501815818585  0.684897186650424  0.6870620644824723  1.0000
  C   C2815     1.0  0.20659713172987212  0.6842733326195548  0.6392237224121929  1.0000
  C   C2816     1.0  0.21215678623340725  0.6723357337823773  0.6194667056414559  1.0000
  H   H1769     1.0  0.22144474823411853  0.7438965334219778  0.39546104332165194  1.0000
  H   H1770     1.0  0.23061628511876314  0.7008453567011022  0.41732556919494  1.0000
  H   H1771     1.0  0.253840074208184  0.7039897906690509  0.3876900440388344  1.0000
  H   H1772     1.0  0.2449804795262462  0.747239311505738  0.36290390437622394  1.0000
  H   H1773     1.0  0.20405085336030596  0.699529997901136  0.3718555316679957  1.0000
  H   H1774     1.0  0.18766419461774808  0.6988769279537933  0.30829756819133114  1.0000
  H   H1775     1.0  0.1767282506741429  0.7415388040565829  0.33451702549943907  1.0000
  H   H1776     1.0  0.19406802819907662  0.741654250343277  0.3994963241283758  1.0000
  H   H1777     1.0  0.22601327307886834  0.7160453346860796  0.5190040727362415  1.0000
  H   H1778     1.0  0.22684577297922348  0.6968938418326438  0.5717834311305616  1.0000
  H   H1779     1.0  0.19686870941261428  0.6752958740184636  0.4839235616880936  1.0000
  H   H1780     1.0  0.19343603204313636  0.6947142011551884  0.43890110552573786  1.0000
  H   H1781     1.0  0.26262982796210327  0.6757971959427208  0.590638236646695  1.0000
  H   H1782     1.0  0.23875097216616178  0.6767940856019492  0.6146596113005202  1.0000
  H   H1783     1.0  0.2259100474953322  0.6583741788715373  0.48440286141710187  1.0000
  H   H1784     1.0  0.24978724553083048  0.6566343279192198  0.4593242079492879  1.0000
  H   H1785     1.0  0.18470344187383023  0.672206142859863  0.56910851573117  1.0000
  H   H1786     1.0  0.1668624389608655  0.6547123442725029  0.5519911717326916  1.0000
  H   H1787     1.0  0.19879250565627193  0.6245354840484463  0.5257671328830564  1.0000
  H   H1788     1.0  0.21663016348164346  0.6418333294853472  0.5402342313211363  1.0000
  H   H1789     1.0  0.21957971527060938  0.6512341800452238  0.6361223712244926  1.0000
  H   H1790     1.0  0.21454245609870967  0.6524663472026137  0.7194394660295222  1.0000
  H   H1791     1.0  0.2000235415772182  0.6940642440139341  0.7023291705564703  1.0000
  H   H1792     1.0  0.20311022773753365  0.6931404787381139  0.6190931337938466  1.0000
  C   C2817     1.0  0.1897386581155873  0.6748036678506769  0.7842612301151746  1.0000
  C   C2818     1.0  0.20526800673122214  0.6741671868619981  0.7686839889224064  1.0000
  H   H1793     1.0  0.1830530917907542  0.6800439481755032  0.7583297050707429  1.0000
  H   H1794     1.0  0.18521628570960055  0.6641262808252655  0.7886771312949343  1.0000
  H   H1795     1.0  0.21067575207250608  0.6657708115872427  0.7882471712439123  1.0000
  H   H1796     1.0  0.2113071848310791  0.6838482000923642  0.7807017247747456  1.0000
  C   C2819     1.0  0.1758915136724733  0.7228917940560164  0.22849627786908566  1.0000
  C   C2820     1.0  0.16940308462934223  0.71997168252201  0.27712616934477113  1.0000
  H   H1797     1.0  0.16801219447305177  0.7255125265225535  0.20116667780628952  1.0000
  H   H1798     1.0  0.18244631834120004  0.7325140844408783  0.23084590382004005  1.0000
  H   H1799     1.0  0.16442199957195736  0.7096225156059548  0.2780424776502281  1.0000
  H   H1800     1.0  0.16071867279621724  0.7275881270450998  0.28485558232757185  1.0000
  C   C2821     1.0  0.1850079201256821  0.773930333555734  0.5726292541817527  1.0000
  C   C2822     1.0  0.19582769058483185  0.7625282435596406  0.5837835456693343  1.0000
  H   H1801     1.0  0.1816243886041285  0.7782264304893094  0.6076850953909075  1.0000
  H   H1802     1.0  0.17561378886308865  0.7689919277151028  0.555818521039331  1.0000
  H   H1803     1.0  0.1916168206628189  0.7561948691460737  0.6125098110454097  1.0000
  H   H1804     1.0  0.2054341463851171  0.7671012281380776  0.5993431655485361  1.0000
  C   C2823     1.0  0.14615433920423887  0.8555001620941717  0.8066649681835969  1.0000
  C   C2824     1.0  0.1471575272583015  0.847625246400529  0.7587068011810656  1.0000
  H   H1805     1.0  0.13557868902219722  0.8546052698881046  0.8222915490543512  1.0000
  H   H1806     1.0  0.14706161080827967  0.8667694326729424  0.7999547719774814  1.0000
  H   H1807     1.0  0.13630724852783746  0.8469649592504663  0.7441128292853071  1.0000
  H   H1808     1.0  0.1506492693902723  0.8365715565790179  0.7638980401577505  1.0000
  C   C2825     1.0  0.158804967988141  0.8365731196828539  0.2732304493414938  1.0000
  C   C2826     1.0  0.15792829784618972  0.8447873007921363  0.31940674911618266  1.0000
  H   H1809     1.0  0.16452497370422647  0.8266532190446728  0.27821128983419496  1.0000
  H   H1810     1.0  0.14783050699252973  0.8327311390041537  0.26390983174364  1.0000
  H   H1811     1.0  0.14711284311317938  0.8445611865670065  0.3337423925550566  1.0000
  H   H1812     1.0  0.15971630654733557  0.8560892750499799  0.3132766465526757  1.0000
  C   C2827     1.0  0.19461646074297922  0.7715410335579065  0.9420882872047072  1.0000
  C   C2828     1.0  0.18764317537269307  0.76359772520945  0.984146838425181  1.0000
  H   H1813     1.0  0.19005393617103045  0.7666835966338648  0.9097144099203706  1.0000
  H   H1814     1.0  0.20595377803854895  0.768749718558086  0.941468016967167  1.0000
  H   H1815     1.0  0.17585369206059237  0.7651478335814443  0.9836499173826062  1.0000
  H   H1816     1.0  0.19097540452507983  0.7681583493365284  0.01913325751311085  1.0000
  C   C2829     1.0  0.26934904688109157  0.7083750586273397  0.8761845744660729  1.0000
  C   C2830     1.0  0.25723999661889724  0.7024192351904744  0.8464574184794216  1.0000
  H   H1817     1.0  0.26544518258924243  0.7176383532752483  0.8971222192457641  1.0000
  H   H1818     1.0  0.2722424874772616  0.700429075698971  0.9035081832822563  1.0000
  H   H1819     1.0  0.2596643137201624  0.6915314155628243  0.8359022516531001  1.0000
  H   H1820     1.0  0.25568233804009793  0.7085563048891294  0.8139954346272525  1.0000
  C   C2831     1.0  0.2838128583952856  0.6593434644520156  0.5268279359597585  1.0000
  C   C2832     1.0  0.27295894030752305  0.669195912568521  0.5046567992304137  1.0000
  H   H1821     1.0  0.2882859179338479  0.6523462362153314  0.5008012558220679  1.0000
  H   H1822     1.0  0.27872933351357976  0.6518174533146432  0.5521885304446362  1.0000
  H   H1823     1.0  0.2726857288195586  0.6678902234477564  0.4663727333758798  1.0000
  H   H1824     1.0  0.2757571226220041  0.680472343151066  0.5103379107242468  1.0000
  C   C2833     1.0  0.36672826951490367  0.7300261964835294  0.525844666662749  1.0000
  C   C2834     1.0  0.3730433854281898  0.7257710906300572  0.4780944311603021  1.0000
  H   H1825     1.0  0.36070121848877057  0.7399802385871181  0.5226446361190763  1.0000
  H   H1826     1.0  0.3751275037120153  0.7321880885736056  0.5521109966649437  1.0000
  H   H1827     1.0  0.3817720051321999  0.7327418855293638  0.47108467262355647  1.0000
  H   H1828     1.0  0.37734386661244745  0.715310822848212  0.4792644863811164  1.0000
  C   C2835     1.0  0.3495079730432646  0.6879709418709166  0.9962280110063596  1.0000
  C   C2836     1.0  0.33542896031968855  0.6932385587509661  0.9769749638036237  1.0000
  H   H1829     1.0  0.3579831250546502  0.6958311647309984  0.9923442734963074  1.0000
  H   H1830     1.0  0.35298005691869816  0.6785873174539216  0.9761961017439854  1.0000
  H   H1831     1.0  0.3302692657623424  0.7006403574881405  0.0020641900595776974  1.0000
  H   H1832     1.0  0.3279167941898581  0.6842289709398013  0.9750789104638705  1.0000
  C   C2837     1.0  0.2763253325068063  0.729550923992617  0.395926245999807  1.0000
  C   C2838     1.0  0.266005459177572  0.7280395437345063  0.3540721020167043  1.0000
  H   H1833     1.0  0.2742960795949333  0.7396879974387615  0.41377311237993775  1.0000
  H   H1834     1.0  0.2747017518220484  0.7218390151022827  0.42377496996027164  1.0000
  H   H1835     1.0  0.2684349513647358  0.7192088423378041  0.33127858049219144  1.0000
  H   H1836     1.0  0.26674248341532836  0.7370747182380125  0.3313356735481468  1.0000
  C   C2839     1.0  0.27223650591072457  0.674616837131282  0.22360460122303086  1.0000
  C   C2840     1.0  0.2635282925720529  0.6612198094863693  0.21228643151928092  1.0000
  H   H1837     1.0  0.2700523831252741  0.6786198579997135  0.26055931518210956  1.0000
  H   H1838     1.0  0.2684204713925506  0.6834196802625219  0.20248510448733353  1.0000
  H   H1839     1.0  0.26884810966241274  0.6545295770770359  0.1852380676210058  1.0000
  H   H1840     1.0  0.262526219551847  0.6542096510411818  0.24349272056670257  1.0000
  C   C2841     1.0  0.25922901404168347  0.8312951380959228  0.8822780246973616  1.0000
  C   C2842     1.0  0.24869367843234014  0.8435751056332713  0.874210987346627  1.0000
  H   H1841     1.0  0.2559597435714131  0.8220902038453012  0.8601738489595694  1.0000
  H   H1842     1.0  0.2581562136201166  0.8280523351646871  0.919092473000451  1.0000
  H   H1843     1.0  0.24959322841991277  0.847128249578886  0.8369877245687953  1.0000
  H   H1844     1.0  0.2521422062041054  0.8531119054939379  0.8943556730158267  1.0000
  C   C2843     1.0  0.25534214700254954  0.8664863891616795  0.6741421173755292  1.0000
  C   C2844     1.0  0.24835857378539458  0.8638517179822713  0.6260500283898928  1.0000
  H   H1845     1.0  0.2531691111475203  0.8577326312712916  0.6978427841224446  1.0000
  H   H1846     1.0  0.25025496344937537  0.8752200627999898  0.6920629932726392  1.0000
  H   H1847     1.0  0.2505417957268425  0.853102009144032  0.6144340584868693  1.0000
  H   H1848     1.0  0.2529146060768838  0.8707864777468259  0.5984585756074988  1.0000
  C   C2845     1.0  0.33315039918740197  0.7865068264096181  0.8226792179528137  1.0000
  C   C2846     1.0  0.338816402878775  0.7807391921171795  0.7748690699842409  1.0000
  H   H1849     1.0  0.3405460711464313  0.7827204641504483  0.8490653728872605  1.0000
  H   H1850     1.0  0.3228334351468214  0.7814192610796825  0.8311092543630176  1.0000
  H   H1851     1.0  0.3500931232975466  0.7842370775923528  0.7710593419911679  1.0000
  H   H1852     1.0  0.33273203694792414  0.7853002243773193  0.7438097426919636  1.0000
  C   C2847     1.0  0.26327308711538683  0.8145826664170279  0.38554729230915047  1.0000
  C   C2848     1.0  0.25609577417478735  0.8285771343728923  0.3987738502721501  1.0000
  H   H1853     1.0  0.25695703808744524  0.8097743349126837  0.3590554094933048  1.0000
  H   H1854     1.0  0.2633727762581356  0.8073277398495423  0.41559515620271176  1.0000
  H   H1855     1.0  0.2630165484573304  0.834725000465849  0.4223159251969671  1.0000
  H   H1856     1.0  0.25536354848794995  0.8349912554794506  0.3667523992591431  1.0000
  C   C2849     1.0  0.25609424411913956  0.862230312161558  0.1602848779057852  1.0000
  C   C2850     1.0  0.24922640295253304  0.8657004761161439  0.1129843383255549  1.0000
  H   H1857     1.0  0.256586144329918  0.8506688291828314  0.16508351401620894  1.0000
  H   H1858     1.0  0.2491071594875055  0.8656384172332247  0.19017168299334883  1.0000
  H   H1859     1.0  0.25298652804026317  0.858630108669942  0.08459464003859936  1.0000
  H   H1860     1.0  0.2529633752098052  0.8762699748765057  0.10254864400521425  1.0000
  C   C2851     1.0  0.3511566307494291  0.8616962274664095  0.4673383813593229  1.0000
  C   C2852     1.0  0.3505568074343372  0.8548286022822548  0.5176155132272029  1.0000
  H   H1861     1.0  0.36235126979622734  0.8632190973578328  0.45722727163487675  1.0000
  H   H1862     1.0  0.3471368137769651  0.872757300835632  0.4687516107073546  1.0000
  H   H1863     1.0  0.36134693714942595  0.8545667231820495  0.5316350303006943  1.0000
  H   H1864     1.0  0.34729992061598364  0.8436553573736815  0.5131502723694569  1.0000
  C   C2853     1.0  0.3508229756739392  0.8857068774852144  0.024759425751243642  1.0000
  C   C2854     1.0  0.3454687675588498  0.8879971092669792  0.9751599685062763  1.0000
  H   H1865     1.0  0.3589287206595073  0.8935340376178496  0.03214109973212341  1.0000
  H   H1866     1.0  0.3569503631838922  0.8757534857434873  0.026728959968569083  1.0000
  H   H1867     1.0  0.35457574926973895  0.8920583556915336  0.9554769612525185  1.0000
  H   H1868     1.0  0.3377722981840787  0.8968897307838707  0.9753925698453539  1.0000
  C   C2855     1.0  0.35356458963382464  0.7886281370651316  0.22167753437140064  1.0000
  C   C2856     1.0  0.3481982151988282  0.7755902157383057  0.1953512919030799  1.0000
  H   H1869     1.0  0.35812697829618706  0.7956526106436951  0.19580768392445172  1.0000
  H   H1870     1.0  0.3622935786395138  0.7856633473310317  0.24570948181336572  1.0000
  H   H1871     1.0  0.35634998572460114  0.7716912384924818  0.17197697188341582  1.0000
  H   H1872     1.0  0.3397576870682265  0.7782893615753548  0.1704763408200944  1.0000
  C   C2857     1.0  0.37523865003801665  0.3163622633895139  0.49652984941355327  1.0000
  C   C2858     1.0  0.37949306167933067  0.3227349900821047  0.5439664255345168  1.0000
  H   H1873     1.0  0.3693564961500972  0.306634141659996  0.5042268391793916  1.0000
  H   H1874     1.0  0.3845971728523695  0.31314751547509  0.47747063666004874  1.0000
  H   H1875     1.0  0.3844444052453935  0.33323901351906854  0.5386377403120133  1.0000
  H   H1876     1.0  0.3877003103372777  0.3160325600517403  0.5602203251682377  1.0000
  C   C2859     1.0  0.35646644369842345  0.34830020286776736  0.027203642913422914  1.0000
  C   C2860     1.0  0.3484557881728234  0.34061010577027145  0.9870825492653565  1.0000
  H   H1877     1.0  0.35317067067900476  0.359446453893729  0.026048424838631633  1.0000
  H   H1878     1.0  0.3678957694765195  0.3484333547550683  0.020547544139956516  1.0000
  H   H1879     1.0  0.3386240792603417  0.33627134442249557  0.0016553755848354168  1.0000
  H   H1880     1.0  0.3544291035337997  0.3313362037136805  0.9754947734640395  1.0000
  C   C2861     1.0  0.32634387701136286  0.26172308470304273  0.7198271349279848  1.0000
  C   C2862     1.0  0.3306518342886768  0.26839023518725735  0.7662874902773653  1.0000
  H   H1881     1.0  0.3324253816008825  0.266989938920253  0.6917422853657292  1.0000
  H   H1882     1.0  0.3156055598722883  0.26496895180405605  0.7119045923484953  1.0000
  H   H1883     1.0  0.34082022459712796  0.2638228188362585  0.7776356162141782  1.0000
  H   H1884     1.0  0.32219478113137934  0.2660471867410462  0.7927723245677843  1.0000
  C   C2863     1.0  0.35622478951679415  0.1845982169537406  0.49469370853992606  1.0000
  C   C2864     1.0  0.3557084392274525  0.17583493743533501  0.5408122104061168  1.0000
  H   H1885     1.0  0.3541258504165673  0.1959049411231553  0.49999067539800984  1.0000
  H   H1886     1.0  0.3675402814166382  0.1845684355169981  0.48370505739986924  1.0000
  H   H1887     1.0  0.3668285305988499  0.17504010124535133  0.5544687284201387  1.0000
  H   H1888     1.0  0.3526571641570868  0.16454990793659757  0.5344896830984639  1.0000
  C   C2865     1.0  0.35377712325742167  0.1570461408675211  0.048834651139328  1.0000
  C   C2866     1.0  0.35828326473722033  0.15986734682236756  0.9967143592607944  1.0000
  H   H1889     1.0  0.3631706115910567  0.15487998958427768  0.07094975209153144  1.0000
  H   H1890     1.0  0.34770022897701036  0.14721753798378404  0.05071202588670076  1.0000
  H   H1891     1.0  0.36644510817811404  0.1520336176853132  0.988481681562535  1.0000
  H   H1892     1.0  0.36426733470830086  0.1697107571932512  0.9952165476076437  1.0000
  C   C2867     1.0  0.33787250426444654  0.25828438646149665  0.17447461686832866  1.0000
  C   C2868     1.0  0.3454640803378702  0.2640383079600456  0.21880807967023508  1.0000
  H   H1893     1.0  0.343629652228469  0.2618266971315499  0.14266532647066207  1.0000
  H   H1894     1.0  0.3272194332751367  0.263035162646995  0.17223353820894377  1.0000
  H   H1895     1.0  0.35659555807004595  0.26067912744477184  0.21691449331438115  1.0000
  H   H1896     1.0  0.3409829606138812  0.25909693266742156  0.251122396914717  1.0000
  C   C2869     1.0  0.2716651808924861  0.3252433239202534  0.6100393028833893  1.0000
  C   C2870     1.0  0.2826874550858913  0.32613151462485124  0.5704829781893554  1.0000
  H   H1897     1.0  0.27253951392222653  0.3346466742870455  0.6326826908163158  1.0000
  H   H1898     1.0  0.2740950095050853  0.31595952620012396  0.6326685937654625  1.0000
  H   H1899     1.0  0.2811282306278049  0.31700072672832363  0.547374387578274  1.0000
  H   H1900     1.0  0.28124830719794974  0.3355962236700395  0.5494008386384192  1.0000
  C   C2871     1.0  0.28327677553660174  0.3757667695061122  0.4486985558687006  1.0000
  C   C2872     1.0  0.27249461309501943  0.3641475533283465  0.4598387503054291  1.0000
  H   H1901     1.0  0.27923373264448786  0.38186694642044283  0.4189150116786365  1.0000
  H   H1902     1.0  0.2848521005080104  0.3830923721258576  0.4781790134654212  1.0000
  H   H1903     1.0  0.2747491498668576  0.3607243093465798  0.4965580435152596  1.0000
  H   H1904     1.0  0.27437347686866576  0.3549039320344077  0.4381116706779596  1.0000
  C   C2873     1.0  0.19289196097504627  0.3272733046410516  0.7892868287443346  1.0000
  C   C2874     1.0  0.18434266733133017  0.3280501260618515  0.7426784543609957  1.0000
  H   H1905     1.0  0.20232272430929107  0.32091735917552316  0.7839475707336911  1.0000
  H   H1906     1.0  0.18664236037014123  0.32176781325437126  0.8157117505686277  1.0000
  H   H1907     1.0  0.17780190252576955  0.33760076184739146  0.7407718282331026  1.0000
  H   H1908     1.0  0.17661610554165222  0.3195136010226437  0.7440529168191811  1.0000
  C   C2875     1.0  0.190709948604109  0.3891733315797721  0.21094192529415853  1.0000
  C   C2876     1.0  0.18376422796609482  0.3841083319123193  0.25665936606357626  1.0000
  H   H1909     1.0  0.19860169927940388  0.39708147199984717  0.2189881694948845  1.0000
  H   H1910     1.0  0.18279905309449626  0.39525151674586084  0.19098226341740687  1.0000
  H   H1911     1.0  0.17665281305324027  0.3925181396485796  0.2688540199041229  1.0000
  H   H1912     1.0  0.17648204354973912  0.3752422726944853  0.24776060271250397  1.0000
  C   C2877     1.0  0.2704826627696867  0.34477622580494344  0.15448112206952938  1.0000
  C   C2878     1.0  0.28109187061990093  0.33810881132031584  0.12015973720982545  1.0000
  H   H1913     1.0  0.2736296142352359  0.35530050905996863  0.16636634564384867  1.0000
  H   H1914     1.0  0.26922909617163004  0.33855659803265864  0.1878840840661484  1.0000
  H   H1915     1.0  0.2835517634895976  0.34478470524939714  0.08998323772722887  1.0000
  H   H1916     1.0  0.2765398544703456  0.3283001039246985  0.10574092117091773  1.0000
  C   C2879     1.0  0.2718521388872599  0.38820508569938217  0.8356238348987497  1.0000
  C   C2880     1.0  0.2637686235269847  0.4019845155092835  0.8261365196745571  1.0000
  H   H1917     1.0  0.26770633871964583  0.37980204833697495  0.8119478379908275  1.0000
  H   H1918     1.0  0.2701539104175816  0.38446669444443543  0.8708664620317093  1.0000
  H   H1919     1.0  0.2649660113951023  0.404808598633629  0.7886736070322211  1.0000
  H   H1920     1.0  0.2682057303541252  0.4108169282067666  0.847736725844348  1.0000
  C   C2881     1.0  0.253697292930579  0.2229764741585878  0.628016566983912  1.0000
  C   C2882     1.0  0.2614984144602958  0.20946449516872437  0.6115406387992532  1.0000
  H   H1921     1.0  0.2589983004859534  0.232399209251777  0.6133556340966008  1.0000
  H   H1922     1.0  0.2550597205785874  0.22370640574337414  0.6665684768046563  1.0000
  H   H1923     1.0  0.25528407132696435  0.19990733912419517  0.6224623289477574  1.0000
  H   H1924     1.0  0.2617113170387615  0.20897791332443263  0.5730063502920754  1.0000
  C   C2883     1.0  0.2526630494290212  0.16067803048662072  0.4004760691626721  1.0000
  C   C2884     1.0  0.25863589600341597  0.16633367236344304  0.351870142673437  1.0000
  H   H1925     1.0  0.2584457751933257  0.16534365391627548  0.43002701201365867  1.0000
  H   H1926     1.0  0.25576023159365807  0.14952105340270858  0.4041377781217866  1.0000
  H   H1927     1.0  0.2536518049535514  0.16000258886338078  0.32289929346505897  1.0000
  H   H1928     1.0  0.25446943727809573  0.17708846908851128  0.34681000626968667  1.0000
  C   C2885     1.0  0.17559834032949767  0.26728815297946906  0.47901073946575906  1.0000
  C   C2886     1.0  0.1860541673611385  0.2766172334265931  0.4504606872253486  1.0000
  H   H1929     1.0  0.16872172535748317  0.2733846071541599  0.5025034747125898  1.0000
  H   H1930     1.0  0.16774567662071255  0.2626641990943172  0.4550528015407732  1.0000
  H   H1931     1.0  0.1805121050237347  0.2812939958876544  0.42048683284876653  1.0000
  H   H1932     1.0  0.19438461431714005  0.26972840251385277  0.43526406640561643  1.0000
  C   C2887     1.0  0.25870738840115276  0.2257637095940476  0.1432168735852929  1.0000
  C   C2888     1.0  0.2634886796004739  0.21093668272998564  0.12757020441707284  1.0000
  H   H1933     1.0  0.2648535592798698  0.2338216985031356  0.12491114819989105  1.0000
  H   H1934     1.0  0.26094582690640145  0.22757477310485782  0.18090251963110915  1.0000
  H   H1935     1.0  0.2569082452361472  0.2029327351272683  0.1443280736187951  1.0000
  H   H1936     1.0  0.261334206228385  0.20894516401475083  0.08974570242035272  1.0000
  C   C2889     1.0  0.25184704362982036  0.17170232240587704  0.9230748898664755  1.0000
  C   C2890     1.0  0.25904879488154947  0.17621564487335092  0.8774885516699923  1.0000
  H   H1937     1.0  0.25725513380154547  0.17673828284560975  0.9528619583192528  1.0000
  H   H1938     1.0  0.25369389682323035  0.1604706157799315  0.9291789128859042  1.0000
  H   H1939     1.0  0.25242833745342136  0.17313646224093593  0.8462706325556167  1.0000
  H   H1940     1.0  0.25967682218649074  0.1878094971777912  0.8754761976607004  1.0000
  C   C2891     1.0  0.15794083300161116  0.19985284642589501  0.7359647338921669  1.0000
  C   C2892     1.0  0.16134414719257714  0.20996288317992273  0.7772056561631561  1.0000
  H   H1941     1.0  0.15955026964990965  0.18878095342903503  0.7464846580913552  1.0000
  H   H1942     1.0  0.1466900467866797  0.20000932923477494  0.7268580390410102  1.0000
  H   H1943     1.0  0.15100249612744057  0.2145987843489762  0.7894736146681393  1.0000
  H   H1944     1.0  0.1674345849573989  0.21927750552627467  0.7655473951075731  1.0000
  C   C2893     1.0  0.16084598449359946  0.1956487242050072  0.24002555090936203  1.0000
  C   C2894     1.0  0.16087088563693624  0.20299104898379502  0.28875130233084917  1.0000
  H   H1945     1.0  0.14976969554053177  0.1957784572745248  0.2260522016774149  1.0000
  H   H1946     1.0  0.16329468435696462  0.18455455136902152  0.2432872560505174  1.0000
  H   H1947     1.0  0.16487099030806973  0.21369322655105813  0.2863914560180262  1.0000
  H   H1948     1.0  0.15007657890588683  0.20445926090259467  0.30095370954936507  1.0000
  C   C2895     1.0  0.19673682475655582  0.28653201806020295  0.09287771469365884  1.0000
  C   C2896     1.0  0.19042801185686603  0.2946303151981187  0.050053693611857075  1.0000
  H   H1949     1.0  0.19215286494724398  0.29110840751380185  0.12542710026111759  1.0000
  H   H1950     1.0  0.20826225281633337  0.28805295203021697  0.09622047787722005  1.0000
  H   H1951     1.0  0.1790028430362667  0.29425119901329777  0.0518581161210646  1.0000
  H   H1952     1.0  0.19347152371885298  0.28913766982269307  0.016450230455251624  1.0000
  C   C2897     1.0  0.3283891588775997  0.9480177950282593  0.7280139972109712  1.0000
  C   C2898     1.0  0.32289632430658916  0.9403651142574927  0.6828893374299299  1.0000
  H   H1953     1.0  0.323621125835758  0.9588000980658254  0.7269179515071362  1.0000
  H   H1954     1.0  0.3237060326765157  0.9432808974048977  0.7601517488935169  1.0000
  H   H1955     1.0  0.3278480638829422  0.944023405928197  0.6497013554588218  1.0000
  H   H1956     1.0  0.31150260159960286  0.9432678051214249  0.680866410632498  1.0000
  C   C2899     1.0  0.3303760224809442  0.9472078244596213  0.2739345970316103  1.0000
  C   C2900     1.0  0.322746384806598  0.9347502609832423  0.2971679465427426  1.0000
  H   H1957     1.0  0.3268910515308431  0.9571921775801254  0.289835365541459  1.0000
  H   H1958     1.0  0.32742609490292074  0.9487272740263459  0.23707045662426338  1.0000
  H   H1959     1.0  0.3280587342114084  0.9325775883890146  0.33153338468636273  1.0000
  H   H1960     1.0  0.3120928418931363  0.9380023610727538  0.30525154792822945  1.0000
  C   C2901     1.0  0.3857026888034789  0.9099064124966126  0.9490945214787394  1.0000
  C   C2902     1.0  0.3960912923013637  0.9098991021587687  0.9070923584616782  1.0000
  H   H1961     1.0  0.3751794995914236  0.9129020302812639  0.9360441766514045  1.0000
  H   H1962     1.0  0.3845064274531225  0.8988145836138861  0.9595933001016481  1.0000
  H   H1963     1.0  0.39478493560000105  0.8999916229445637  0.8888930658102181  1.0000
  H   H1964     1.0  0.40725722580018325  0.9087436166326527  0.9180387184491755  1.0000
  C   C2903     1.0  0.4086012917344469  0.9188529880946608  0.42610803187647356  1.0000
  C   C2904     1.0  0.4012736135376582  0.9222523871487457  0.4744538677774674  1.0000
  H   H1965     1.0  0.4058951599573487  0.908015160609045  0.41769561677983613  1.0000
  H   H1966     1.0  0.4202439943191551  0.9187295528168862  0.43037943828498826  1.0000
  H   H1967     1.0  0.39048178613504353  0.9257530620423365  0.4695410455551329  1.0000
  H   H1968     1.0  0.3998790353738262  0.9120047126313444  0.4940276228871131  1.0000
  C   C2905     1.0  0.49986293268934756  0.9649693223293447  0.6739095160364518  1.0000
  C   C2906     1.0  0.49196872239020584  0.9545331485994883  0.6425999660915305  1.0000
  H   H1969     1.0  0.49741987523355435  0.9625519634295879  0.7106076636700025  1.0000
  H   H1970     1.0  0.49604578053523846  0.9758376656254284  0.6696698279923567  1.0000
  H   H1971     1.0  0.49364264067941255  0.9436435936420248  0.6558335725799569  1.0000
  H   H1972     1.0  0.49716474857263143  0.9548586491654133  0.6080339973995239  1.0000
  C   C2907     1.0  0.5814638239579754  0.9207788719257056  0.9608021222123087  1.0000
  C   C2908     1.0  0.5833502241762976  0.9360435951183316  0.9417711035605105  1.0000
  H   H1973     1.0  0.5769850052508897  0.9133342019728637  0.9361252346938104  1.0000
  H   H1974     1.0  0.5917654622957962  0.9163477413756111  0.9719317438608972  1.0000
  H   H1975     1.0  0.5888854428549469  0.9421163322536429  0.969760798029507  1.0000
  H   H1976     1.0  0.5730108596637185  0.941382515733476  0.9386450825338171  1.0000
  C   C2909     1.0  0.5548433279703079  0.9122683527097987  0.4757296508796805  1.0000
  C   C2910     1.0  0.5447761666207624  0.9173270479898348  0.43645526720271044  1.0000
  H   H1977     1.0  0.5647350696303499  0.9082342454388886  0.46261939358621956  1.0000
  H   H1978     1.0  0.5504275226153601  0.9031152788964876  0.49392189500571426  1.0000
  H   H1979     1.0  0.5394906338066734  0.9085518385347522  0.41983131998409345  1.0000
  H   H1980     1.0  0.5363908701486637  0.9237816995915844  0.45184924673438714  1.0000
  C   C2911     1.0  0.4841143071948019  0.9308275560217844  0.1066159956026291  1.0000
  C   C2912     1.0  0.4784565685647727  0.9395197454491975  0.06446123201008225  1.0000
  H   H1981     1.0  0.4815318357021595  0.9197269775617222  0.09981557827105325  1.0000
  H   H1982     1.0  0.4787054263607364  0.9340446455571891  0.13938212332695557  1.0000
  H   H1983     1.0  0.4824313991144299  0.9346850837105  0.031159416353334822  1.0000
  H   H1984     1.0  0.4829850023247951  0.9498598891499903  0.06483198444752099  1.0000
  C   C2913     1.0  0.3369961491299703  0.09009565736926554  0.8039442373689324  1.0000
  C   C2914     1.0  0.32813342941330736  0.10043533355580526  0.7746963811112894  1.0000
  H   H1985     1.0  0.3330067922922323  0.0794179005277878  0.7952357842043781  1.0000
  H   H1986     1.0  0.33466517197405027  0.0913873846264649  0.8418688284267102  1.0000
  H   H1987     1.0  0.3328206511211309  0.10049553544858215  0.738086340045571  1.0000
  H   H1988     1.0  0.31802519140068775  0.09521932417299628  0.7716091269744422  1.0000
  C   C2915     1.0  0.4183323692259931  0.004795426013499915  0.9864904731295228  1.0000
  C   C2916     1.0  0.43342196286935875  0.011419458530073978  0.9840234892302157  1.0000
  H   H1989     1.0  0.41204557880752485  0.01183777840604594  0.009345316825247085  1.0000
  H   H1990     1.0  0.4129331690990911  0.004600702354696118  0.9520126110053486  1.0000
  H   H1991     1.0  0.4389613830781833  0.006032195315585076  0.9544760706419424  1.0000
  H   H1992     1.0  0.4394040406744726  0.00938821313137006  0.017149062362898097  1.0000
  C   C2917     1.0  0.4128405435729304  0.02096532590781097  0.7519190711952576  1.0000
  C   C2918     1.0  0.4111093840452998  0.01264014317898865  0.7987142315024013  1.0000
  H   H1993     1.0  0.40673980715244046  0.01642327750533923  0.7234994166752391  1.0000
  H   H1994     1.0  0.42398625095820364  0.019133312678514553  0.7399048596056317  1.0000
  H   H1995     1.0  0.40437915439035127  0.018249214237764377  0.8232994881903538  1.0000
  H   H1996     1.0  0.4212332905680226  0.012746864080916076  0.8173223386286038  1.0000
  C   C2919     1.0  0.33859948613590296  0.09563352035199353  0.2715409177967397  1.0000
  C   C2920     1.0  0.3312574715082211  0.10207303550873874  0.3146863516379941  1.0000
  H   H1997     1.0  0.3337995137352613  0.08529793960374032  0.26582738308594434  1.0000
  H   H1998     1.0  0.3350804883844829  0.10157658538602501  0.2398539193152245  1.0000
  H   H1999     1.0  0.33540692528857413  0.09688469387132931  0.3461798680965494  1.0000
  H   H2000     1.0  0.319869202055782  0.09939700785677907  0.31475577961344603  1.0000
  C   C2921     1.0  0.4343595088366598  0.018845881786970775  0.5540246713182634  1.0000
  C   C2922     1.0  0.4196866394782295  0.02563466810853033  0.555568298386687  1.0000
  H   H2001     1.0  0.4423285422186235  0.02459337712807919  0.5767843599207286  1.0000
  H   H2002     1.0  0.4382479098854432  0.019341412545954808  0.5174146302525451  1.0000
  H   H2003     1.0  0.4157109866362127  0.026741607811759993  0.5922840673338042  1.0000
  H   H2004     1.0  0.41148809735918684  0.019096571162650386  0.5374042483623597  1.0000
  C   C2923     1.0  0.4118324356980565  0.012896615309352821  0.2530755433104256  1.0000
  C   C2924     1.0  0.4102441126874959  0.02012088985600679  0.3005639260932746  1.0000
  H   H2005     1.0  0.40564589378798527  0.018601342735427018  0.22648286658097966  1.0000
  H   H2006     1.0  0.42304941057296525  0.014000585045887304  0.2417591357380323  1.0000
  H   H2007     1.0  0.4196511741747608  0.01829553056111619  0.3217243042764461  1.0000
  H   H2008     1.0  0.4013231493322003  0.015692104146493913  0.321637607413699  1.0000
  C   C2925     1.0  0.4098234332396254  0.12643288529190225  0.6053767033136986  1.0000
  C   C2926     1.0  0.41830142752413757  0.12402474186646972  0.651096963493287  1.0000
  H   H2009     1.0  0.39848378655693883  0.12686167428305392  0.6144446312750091  1.0000
  H   H2010     1.0  0.4119223067225569  0.13733216796326556  0.593031211029023  1.0000
  H   H2011     1.0  0.41880849648676177  0.13443124935588144  0.6685350153986754  1.0000
  H   H2012     1.0  0.42937359796883984  0.12153992929757113  0.6414545807097094  1.0000
  C   C2927     1.0  0.42543780476940085  0.11292464214870282  0.1340883283053137  1.0000
  C   C2928     1.0  0.4165870385735443  0.11390584704501909  0.09025108169343936  1.0000
  H   H2013     1.0  0.4285054791600379  0.12339133482031561  0.1462784006043331  1.0000
  H   H2014     1.0  0.435492381424983  0.10752550211740312  0.12616402359446777  1.0000
  H   H2015     1.0  0.4052244183473073  0.11357543732086094  0.09994421386008855  1.0000
  H   H2016     1.0  0.4180673226204456  0.12441575986541033  0.07395947244868617  1.0000
  C   C2929     1.0  0.5693840097337156  0.9985236811581195  0.9852816510188623  1.0000
  C   C2930     1.0  0.5546669559247502  0.9948760092730744  0.0026809360344044464  1.0000
  H   H2017     1.0  0.5733970899981421  0.991399997474855  0.9574399755838243  1.0000
  H   H2018     1.0  0.5775646931440009  0.9982097331448114  0.012712861429909687  1.0000
  H   H2019     1.0  0.5516611137513442  0.0030243196253707527  0.029370606327947194  1.0000
  H   H2020     1.0  0.5475410312840011  0.9952573000643785  0.9719669864880303  1.0000
  C   C2931     1.0  0.616526837083753  0.0162844244201672  0.7093142592542229  1.0000
  C   C2932     1.0  0.6240311600893103  0.007810738374832704  0.7492582528467192  1.0000
  H   H2021     1.0  0.6060485407073478  0.011422775503284521  0.7027978974973387  1.0000
  H   H2022     1.0  0.6218024491078252  0.014620315201505196  0.6752029204522314  1.0000
  H   H2023     1.0  0.621380340801253  0.012809325572174401  0.783478843792823  1.0000
  H   H2024     1.0  0.6356086026921506  0.008636601137006927  0.7439577617259221  1.0000
  C   C2933     1.0  0.5025923800991096  0.06309711293505992  0.886700974402548  1.0000
  C   C2934     1.0  0.49568415420278666  0.0692583625599248  0.9308388406238665  1.0000
  H   H2025     1.0  0.5000867363788318  0.0693908654634692  0.855465433974606  1.0000
  H   H2026     1.0  0.49789044844786745  0.052714359212267095  0.8804242625101679  1.0000
  H   H2027     1.0  0.5003792630637055  0.07981859824272815  0.93584681793946  1.0000
  H   H2028     1.0  0.49908903602116367  0.06324903465833606  0.9629343011538527  1.0000
  C   C2935     1.0  0.5717234000182588  0.027552331278635694  0.5693869324855204  1.0000
  C   C2936     1.0  0.577180260599587  0.015174765735495477  0.5379011694049344  1.0000
  H   H2029     1.0  0.580000590399138  0.030221008667512737  0.5942294603515436  1.0000
  H   H2030     1.0  0.5627384079091998  0.02427719575184757  0.5902505677482325  1.0000
  H   H2031     1.0  0.5886782688530546  0.01536881943530699  0.5314482443768895  1.0000
  H   H2032     1.0  0.572312322106085  0.016574121925985175  0.502672639322828  1.0000
  C   C2937     1.0  0.5911065536307637  0.005678402162122342  0.31551490580188996  1.0000
  C   C2938     1.0  0.6063389209547164  0.011305082130286914  0.3070284811882733  1.0000
  H   H2033     1.0  0.5833137707739195  0.01063895534835324  0.29059695871380226  1.0000
  H   H2034     1.0  0.5877849648133278  0.009006633858858581  0.351393309928328  1.0000
  H   H2035     1.0  0.610555110564859  0.007263271806402516  0.27337318198138233  1.0000
  H   H2036     1.0  0.613798710385658  0.007944069555583244  0.3351020531098462  1.0000
  C   C2939     1.0  0.5722610481353816  0.11758068431249595  0.5971651711917192  1.0000
  C   C2940     1.0  0.5680074171790354  0.11331434233689444  0.6475022155257252  1.0000
  H   H2037     1.0  0.5677167265382327  0.12805102539713425  0.5882346894762271  1.0000
  H   H2038     1.0  0.5839023161412764  0.11930922154985805  0.5970277249459006  1.0000
  H   H2039     1.0  0.5567773353295657  0.11015381455893106  0.6468784210254718  1.0000
  H   H2040     1.0  0.5678661396698639  0.12320116901790727  0.6699447204839938  1.0000
  C   C2941     1.0  0.5652582639800988  0.09266805944436565  0.12801214696132016  1.0000
  C   C2942     1.0  0.5749913710116109  0.09463170050614143  0.08526847906938155  1.0000
  H   H2041     1.0  0.5561594275002585  0.08583784318408197  0.11858721118715279  1.0000
  H   H2042     1.0  0.5610222293587508  0.10319003230669488  0.13697399461496043  1.0000
  H   H2043     1.0  0.5743014241768474  0.10551959974215483  0.07307593978646287  1.0000
  H   H2044     1.0  0.5861773131522374  0.0939484229342432  0.09716991425218197  1.0000
  C   C2943     1.0  0.48699663624611067  0.07225229311237778  0.45562373210032714  1.0000
  C   C2944     1.0  0.49426890167397053  0.07803515003928134  0.4102065585140822  1.0000
  H   H2045     1.0  0.49305796431607285  0.07617640426614433  0.48697204893509466  1.0000
  H   H2046     1.0  0.4875859380361579  0.060701438600692194  0.45729070836371616  1.0000
  H   H2047     1.0  0.49037216430731023  0.08895626721917596  0.4018011919428714  1.0000
  H   H2048     1.0  0.4913577045183552  0.0717061284197398  0.3785340095096915  1.0000
  C   C2945     1.0  0.14391637009257566  0.9185110998272564  0.5752407328523049  1.0000
  C   C2946     1.0  0.1594396938709817  0.9227406396611563  0.5861553744753826  1.0000
  H   H2049     1.0  0.1408324699155845  0.9104447870403535  0.6002312797522866  1.0000
  H   H2050     1.0  0.14329167286717925  0.9137178932053093  0.5403928231432347  1.0000
  H   H2051     1.0  0.16348379700747154  0.9299564672138393  0.5584511452861631  1.0000
  H   H2052     1.0  0.159786036175014  0.9288297609588694  0.6193926961244767  1.0000
  C   C2947     1.0  0.15648922953557134  0.9297143573078649  0.12829972679872512  1.0000
  C   C2948     1.0  0.16628484020815237  0.9227417197309985  0.09075787067161131  1.0000
  H   H2053     1.0  0.16325037496913575  0.937344395155815  0.14885252209012445  1.0000
  H   H2054     1.0  0.15342767370532318  0.9218566338562462  0.15609311983459095  1.0000
  H   H2055     1.0  0.16168763688790297  0.9235589489852332  0.055562468659009975  1.0000
  H   H2056     1.0  0.17628758644081574  0.9285959501927195  0.0885629598537706  1.0000
  C   C2949     1.0  0.09907553008344759  0.9193036503251556  0.9075258427754138  1.0000
  C   C2950     1.0  0.10248136788543562  0.9236946934388505  0.8568257993819383  1.0000
  H   H2057     1.0  0.10611066388638274  0.9107768862805917  0.9163682179230733  1.0000
  H   H2058     1.0  0.08853495148666433  0.9143781467303831  0.9078817933094566  1.0000
  H   H2059     1.0  0.11296481957135608  0.9287948069884097  0.8579923303400392  1.0000
  H   H2060     1.0  0.10478824548644487  0.914127195920482  0.8358176693479811  1.0000
  C   C2951     1.0  0.07657435747316206  0.9222019879840908  0.3641832117411504  1.0000
  C   C2952     1.0  0.06763466338430205  0.9244823123390821  0.4095933368019687  1.0000
  H   H2061     1.0  0.08805963755356885  0.9223291911653031  0.37154539654922564  1.0000
  H   H2062     1.0  0.07469026101080081  0.9114286158036867  0.3507529513933222  1.0000
  H   H2063     1.0  0.06450174183218278  0.9141650110452914  0.42469480252844183  1.0000
  H   H2064     1.0  0.05775223062350212  0.9292459716776211  0.3985518217212125  1.0000
  C   C2953     1.0  0.993764004803392  0.9380593907980385  0.7760391252050551  1.0000
  C   C2954     1.0  0.0013763905900441298  0.9523604886686513  0.7676830983118305  1.0000
  H   H2065     1.0  0.9979356769383795  0.9329080294510478  0.8077151984721591  1.0000
  H   H2066     1.0  0.9963059918628129  0.9309601797894383  0.7460335524640535  1.0000
  H   H2067     1.0  0.9963225552088069  0.9578838157754737  0.7380334761048716  1.0000
  H   H2068     1.0  0.9994677295801898  0.9588730309298489  0.7998913352486421  1.0000
  C   C2955     1.0  0.8977996638883353  0.9170003516951694  0.9401534669751077  1.0000
  C   C2956     1.0  0.8947159435572245  0.919139408949114  0.88620052909726  1.0000
  H   H2069     1.0  0.9087438838900768  0.9127491517916758  0.943325303417074  1.0000
  H   H2070     1.0  0.8908027204882983  0.908435083327621  0.9531756177007362  1.0000
  H   H2071     1.0  0.8941991180893514  0.9086681974587509  0.8697739405905875  1.0000
  H   H2072     1.0  0.8838742460496648  0.9230138905712454  0.882521198824579  1.0000
  C   C2957     1.0  0.9295910303085833  0.9294475241214418  0.3958205181184081  1.0000
  C   C2958     1.0  0.9357091476745995  0.9323426869430212  0.4450403711722994  1.0000
  H   H2073     1.0  0.9345908861626534  0.9196504508131187  0.3816987974262313  1.0000
  H   H2074     1.0  0.918188479008891  0.9261745419051528  0.39774828982258104  1.0000
  H   H2075     1.0  0.9448945968327601  0.9396765372509163  0.4449311190281872  1.0000
  H   H2076     1.0  0.939295204469996  0.922325081318963  0.4592501984323087  1.0000
  C   C2959     1.0  0.0003827678439303206  0.968514533741646  0.18794787322125908  1.0000
  C   C2960     1.0  0.9935904517372943  0.9593523094301287  0.14874080296211295  1.0000
  H   H2077     1.0  0.9946526846362621  0.967091412962995  0.2210495107558913  1.0000
  H   H2078     1.0  0.9982265005461992  0.9795519156244532  0.1809828728209723  1.0000
  H   H2079     1.0  0.9980419419324961  0.9483675185608762  0.14644157396795868  1.0000
  H   H2080     1.0  0.9959481431552166  0.9640819522358564  0.113634564796158  1.0000
  C   C2961     1.0  0.15691922238920275  0.12374564612626698  0.9746736202518415  1.0000
  C   C2962     1.0  0.15377165671918194  0.13863105664835762  0.9924640984285595  1.0000
  H   H2081     1.0  0.16730006605940895  0.12034316942674951  0.9880728670877927  1.0000
  H   H2082     1.0  0.157847205305575  0.12326765064229449  0.9367419806686371  1.0000
  H   H2083     1.0  0.1520706812611029  0.1380804720690412  0.030889387344242084  1.0000
  H   H2084     1.0  0.1437138068082004  0.1420528870977969  0.9772886231851071  1.0000
  C   C2963     1.0  0.07278814739191884  0.024612998406734508  0.8022067758512775  1.0000
  C   C2964     1.0  0.05790445715653762  0.01791588704395397  0.8013151373848137  1.0000
  H   H2085     1.0  0.07703644124277234  0.024734287425297565  0.7663720725824843  1.0000
  H   H2086     1.0  0.08010954668470822  0.018319570217352643  0.8235461865802844  1.0000
  H   H2087     1.0  0.05040126820220818  0.023823465597332193  0.7788021471722791  1.0000
  H   H2088     1.0  0.053604335021709144  0.018925005496651583  0.8367480747042911  1.0000
  C   C2965     1.0  0.11414587206481008  0.028593640356386313  0.08349894676103566  1.0000
  C   C2966     1.0  0.10608523513589822  0.020209606833667196  0.04660308798926901  1.0000
  H   H2089     1.0  0.12530087487267066  0.025006053446319388  0.08335832867877514  1.0000
  H   H2090     1.0  0.11013917347306454  0.025911857988326965  0.11891214820931868  1.0000
  H   H2091     1.0  0.10935806233734126  0.023667180476623813  0.011329476732832688  1.0000
  H   H2092     1.0  0.0950447222530299  0.023580167359961757  0.04833314855522599  1.0000
  C   C2967     1.0  0.16276216200984528  0.11856454312589623  0.49351308053097187  1.0000
  C   C2968     1.0  0.14955934420901268  0.12318345236955039  0.5213265618643036  1.0000
  H   H2093     1.0  0.1601533160010792  0.11167375893578951  0.4625700539082334  1.0000
  H   H2094     1.0  0.16951407443021943  0.11180544659969922  0.516163516989325  1.0000
  H   H2095     1.0  0.14491789603955665  0.13227225812369892  0.5022532520599459  1.0000
  H   H2096     1.0  0.15251988248137063  0.12734309114432402  0.556068743691975  1.0000
  C   C2969     1.0  0.051412267856015895  0.030431286620609326  0.2952341835919571  1.0000
  C   C2970     1.0  0.06589262985608899  0.023482523006059235  0.28995131378472644  1.0000
  H   H2097     1.0  0.04437625391982531  0.024212883232067283  0.318491850515811  1.0000
  H   H2098     1.0  0.046051167845553125  0.03077368027152035  0.26165782786984393  1.0000
  H   H2099     1.0  0.07304766771848187  0.029964361234400542  0.2681646741174022  1.0000
  H   H2100     1.0  0.07118724192671458  0.023821105323070066  0.3252464524321141  1.0000
  C   C2971     1.0  0.10166795542860227  0.026133707003042034  0.579776458964317  1.0000
  C   C2972     1.0  0.09736101186134337  0.017368614741896105  0.5365337554721756  1.0000
  H   H2101     1.0  0.11171620607287527  0.023231740451601673  0.594722857131405  1.0000
  H   H2102     1.0  0.0942143030501096  0.02375724628995381  0.6083511810437205  1.0000
  H   H2103     1.0  0.10491438793415818  0.019679989282153133  0.5076770923757083  1.0000
  H   H2104     1.0  0.08679467367174379  0.02086619335826329  0.52259529644109  1.0000
  C   C2973     1.0  0.08467226299806332  0.12411808720285687  0.7061318500241166  1.0000
  C   C2974     1.0  0.09388581704324211  0.12410438773584083  0.7512741311187244  1.0000
  H   H2105     1.0  0.07391760554316194  0.12118931792226324  0.7150764287904617  1.0000
  H   H2106     1.0  0.0838597406990216  0.13536362106937216  0.6941423082734839  1.0000
  H   H2107     1.0  0.09348684321099995  0.13502485679932377  0.7654804341160205  1.0000
  H   H2108     1.0  0.10503691841766628  0.12271687292201289  0.7421004752760151  1.0000
  C   C2975     1.0  0.1003931101266258  0.1213709889601851  0.259099213139991  1.0000
  C   C2976     1.0  0.09536124497240943  0.12439736005887936  0.2082218993320367  1.0000
  H   H2109     1.0  0.11092437361307797  0.11685394143675663  0.257560520039366  1.0000
  H   H2110     1.0  0.10159264851910012  0.13146938209752607  0.27734396878045287  1.0000
  H   H2111     1.0  0.09878066678808588  0.13507376692716197  0.20077971376036963  1.0000
  H   H2112     1.0  0.0837882415705051  0.1249714235298664  0.20920058708751896  1.0000
  C   C2977     1.0  0.9362607126496858  0.02620216320234664  0.7862806326498932  1.0000
  C   C2978     1.0  0.9430869799946738  0.01614695245575981  0.8224571894018761  1.0000
  H   H2113     1.0  0.9252156981167493  0.02331377880615992  0.7774206361886672  1.0000
  H   H2114     1.0  0.9418881682413542  0.02567567021762067  0.7521164299072022  1.0000
  H   H2115     1.0  0.9382690534399202  0.018284574085484007  0.8579888060773259  1.0000
  H   H2116     1.0  0.9544949263278182  0.01842866241175667  0.8268061295900833  1.0000
  C   C2979     1.0  0.8876196058357221  0.023894693730328247  0.06181838740138162  1.0000
  C   C2980     1.0  0.8741530070011087  0.015233200353691467  0.054424131802615384  1.0000
  H   H2117     1.0  0.8965416195325937  0.019562376782090274  0.039404076544819366  1.0000
  H   H2118     1.0  0.8914967229260646  0.02283534800217765  0.09853697575866947  1.0000
  H   H2119     1.0  0.8706007080977094  0.016750854620842803  0.018493956256918968  1.0000
  H   H2120     1.0  0.8655263209867227  0.019029475669099183  0.07807616372408717  1.0000
  C   C2981     1.0  0.9996136894827271  0.0878583629982199  0.9360829435412509  1.0000
  C   C2982     1.0  0.007833267211475637  0.08188138928102867  0.8938411306596856  1.0000
  H   H2121     1.0  0.0032978976038851027  0.0987998223725833  0.9438504185613552  1.0000
  H   H2122     1.0  0.001882709984139197  0.081497549041904  0.9691475763173936  1.0000
  H   H2123     1.0  0.0029512327061478327  0.0858678383711705  0.8601985187985625  1.0000
  H   H2124     1.0  0.004863595343197913  0.0705459152817163  0.8920754750403244  1.0000
  C   C2983     1.0  0.9325356094985905  0.032621384019373346  0.28131193616935274  1.0000
  C   C2984     1.0  0.9342340295663929  0.021138061166752875  0.31822541625468587  1.0000
  H   H2125     1.0  0.9228857409601178  0.03127338831863645  0.26040460004899585  1.0000
  H   H2126     1.0  0.9408941719522179  0.030818148623638075  0.2548419037823295  1.0000
  H   H2127     1.0  0.9255154595617285  0.021386310240125866  0.34276168569092363  1.0000
  H   H2128     1.0  0.9435006731708699  0.023283957984067103  0.34044483538320286  1.0000
  C   C2985     1.0  0.8986017107456069  0.020667481382769286  0.5956285926487221  1.0000
  C   C2986     1.0  0.8852789093536249  0.02821741957356374  0.5784019965061314  1.0000
  H   H2129     1.0  0.9000674346089068  0.023507279468874882  0.6325945842484834  1.0000
  H   H2130     1.0  0.907781026729972  0.02452934269547018  0.5756530715897606  1.0000
  H   H2131     1.0  0.8809813385361612  0.023419038711611037  0.5453902276706883  1.0000
  H   H2132     1.0  0.8768431565556553  0.026866255906001682  0.6053590820001322  1.0000
  C   C2987     1.0  0.9353537590682467  0.11936367729220579  0.674483970858719  1.0000
  C   C2988     1.0  0.9306404060482614  0.12224668824323709  0.725046568006376  1.0000
  H   H2133     1.0  0.9457692358386368  0.11395134979915386  0.6744205341298797  1.0000
  H   H2134     1.0  0.9374311747319759  0.12889175845322723  0.6547551481896882  1.0000
  H   H2135     1.0  0.9191171925860714  0.12487397927788012  0.7244439190824025  1.0000
  H   H2136     1.0  0.936157615801765  0.1315892411424279  0.7380933885709976  1.0000
  C   C2989     1.0  0.9239495131570395  0.12035351516218866  0.16180771182420034  1.0000
  C   C2990     1.0  0.9185112876259236  0.12313165002687497  0.2124122476981456  1.0000
  H   H2137     1.0  0.9349178458886842  0.11634150139750996  0.16185740392845785  1.0000
  H   H2138     1.0  0.9251222435698134  0.13053885547790273  0.144085251917849  1.0000
  H   H2139     1.0  0.9069376394205301  0.12358003265921727  0.21072905982627543  1.0000
  H   H2140     1.0  0.9214298093730544  0.13379401884542005  0.2231587819897989  1.0000
  C   C2991     1.0  0.0023303341023031  0.10061949745473404  0.3824424168587367  1.0000
  C   C2992     1.0  0.9937890148810058  0.10230138425791672  0.4283706085384095  1.0000
  H   H2141     1.0  0.00022002933783782375  0.10992695165048055  0.3609585113584846  1.0000
  H   H2142     1.0  0.9980799980176548  0.09185879085140493  0.36169508226556346  1.0000
  H   H2143     1.0  0.9955021093180463  0.11278569619162566  0.4434685500021694  1.0000
  H   H2144     1.0  0.9979824530005436  0.09503950557454338  0.4560607406767758  1.0000
  C   C2993     1.0  0.3679066571446889  0.431664956911645  0.7413533315807963  1.0000
  C   C2994     1.0  0.36636169652843675  0.4247214949857191  0.7906542426770934  1.0000
  H   H2145     1.0  0.37298673818560485  0.424481245361725  0.7160068341467719  1.0000
  H   H2146     1.0  0.3574125185639885  0.43440425809493116  0.7271117859563674  1.0000
  H   H2147     1.0  0.36335241900743503  0.43291101856529524  0.8157540417211872  1.0000
  H   H2148     1.0  0.3772400554380035  0.4210337171542243  0.8008111678168124  1.0000
  C   C2995     1.0  0.3711411093352514  0.4193661394344431  0.3965147978729274  1.0000
  C   C2996     1.0  0.35848238487181266  0.41464253219425273  0.36605459524191053  1.0000
  H   H2149     1.0  0.3782131101489663  0.4102148605743274  0.40081792264586186  1.0000
  H   H2150     1.0  0.3673681994077161  0.42226089554451196  0.43152482366680944  1.0000
  H   H2151     1.0  0.34975774106344815  0.42208195027827183  0.37127755258301515  1.0000
  H   H2152     1.0  0.36104821850144797  0.41584373802120506  0.32786885631707763  1.0000
  C   C2997     1.0  0.4572159803257733  0.47271835230397474  0.6137503515204898  1.0000
  C   C2998     1.0  0.45262983176621074  0.486848113273653  0.6334086889352547  1.0000
  H   H2153     1.0  0.4500510636288608  0.46440108461002183  0.6249575069487711  1.0000
  H   H2154     1.0  0.4671428669973669  0.4691998521421255  0.6283971873569478  1.0000
  H   H2155     1.0  0.44943575642243483  0.4943114016868274  0.6054612856188178  1.0000
  H   H2156     1.0  0.46210296549851004  0.4917340115001591  0.650025587628445  1.0000
  C   C2999     1.0  0.3902425920913415  0.43947405192159517  0.12945533254241484  1.0000
  C   C3000     1.0  0.3996270036744952  0.4317952644016838  0.09440336802224465  1.0000
  H   H2157     1.0  0.3826978283238332  0.4321174729004467  0.14359009300663092  1.0000
  H   H2158     1.0  0.3827328800183322  0.44661280405389214  0.10990448514040557  1.0000
  H   H2159     1.0  0.4075032655720239  0.425319345923431  0.11374099753009953  1.0000
  H   H2160     1.0  0.3930712454415405  0.424096377189495  0.07501710368894628  1.0000
  C   C3001     1.0  0.49812320911904756  0.46434283440956753  0.9794630932792108  1.0000
  C   C3002     1.0  0.4903218749486613  0.45783738874664054  0.9367807475584834  1.0000
  H   H2161     1.0  0.4936065482388338  0.46044951568534814  0.012421998173954396  1.0000
  H   H2162     1.0  0.49631550345208375  0.4755763000886682  0.9820287565344901  1.0000
  H   H2163     1.0  0.49243223320095303  0.4462998686741217  0.9378415506351856  1.0000
  H   H2164     1.0  0.4952677294552009  0.4612186233022262  0.903134611434647  1.0000
  C   C3003     1.0  0.574769130572883  0.4163898756855232  0.6247707210249662  1.0000
  C   C3004     1.0  0.5645011188338797  0.42254974114290267  0.6626917878200307  1.0000
  H   H2165     1.0  0.5702650291746729  0.4059839995035544  0.6125203838335496  1.0000
  H   H2166     1.0  0.5852196426796891  0.4139549120629742  0.6394986149038302  1.0000
  H   H2167     1.0  0.5565692368098228  0.42925300091290075  0.645761229745357  1.0000
  H   H2168     1.0  0.5590367475286551  0.41420206817955946  0.6804153050051961  1.0000
  C   C3005     1.0  0.5897730738411401  0.423074108145362  0.11836905932519978  1.0000
  C   C3006     1.0  0.5841780935110584  0.42342973052905003  0.1703286742124073  1.0000
  H   H2169     1.0  0.5892142167030946  0.4120013269115699  0.10671537981114407  1.0000
  H   H2170     1.0  0.6013826073942812  0.4247765110847467  0.11850368616084768  1.0000
  H   H2171     1.0  0.5736026765965292  0.4285419419589021  0.1699857634504036  1.0000
  H   H2172     1.0  0.5823346818506464  0.4125234734926049  0.18057159136233064  1.0000
  C   C3007     1.0  0.5226350291117374  0.47681837724872  0.39318436960886277  1.0000
  C   C3008     1.0  0.5159041975721296  0.4654040154197296  0.35997171779876175  1.0000
  H   H2173     1.0  0.5148771904257708  0.48022988426182933  0.4206207548318718  1.0000
  H   H2174     1.0  0.5231324883903846  0.48684065312096264  0.37396304077054665  1.0000
  H   H2175     1.0  0.5184411328768675  0.4551148825247857  0.37460445658436653  1.0000
  H   H2176     1.0  0.5208011217416636  0.46544399099200306  0.3247107644996931  1.0000
  C   C3009     1.0  0.37249158151171113  0.6353259396940633  0.6890990883307573  1.0000
  C   C3010     1.0  0.35759322546665845  0.6323994056058814  0.6725597234172594  1.0000
  H   H2177     1.0  0.3725447187520213  0.6417784129072082  0.7204368323773849  1.0000
  H   H2178     1.0  0.3781919774022708  0.6413945835932913  0.6623499343368411  1.0000
  H   H2179     1.0  0.3513112632562337  0.6275943672755055  0.7015749783358249  1.0000
  H   H2180     1.0  0.357201720322099  0.6244050006924624  0.644295136456626  1.0000
  C   C3011     1.0  0.4518400676127302  0.5494375211673901  0.44123769170465305  1.0000
  C   C3012     1.0  0.45082319655213204  0.5360995347224656  0.4697172586907976  1.0000
  H   H2181     1.0  0.46146159242718837  0.5488753758334517  0.4187634683819648  1.0000
  H   H2182     1.0  0.44257855502523485  0.5501971876153338  0.41614846544869916  1.0000
  H   H2183     1.0  0.44078717216360697  0.5356738703975721  0.489728022376892  1.0000
  H   H2184     1.0  0.4589413140392773  0.5359199607427784  0.4982073984650821  1.0000
  C   C3013     1.0  0.36721762941763525  0.5292213895229009  0.7595490999695433  1.0000
  C   C3014     1.0  0.3677924004079451  0.540779779249749  0.7225302444290826  1.0000
  H   H2185     1.0  0.3572815723721846  0.5231857844490919  0.7555279162136727  1.0000
  H   H2186     1.0  0.3660280802129028  0.5344120024335843  0.7940093407801512  1.0000
  H   H2187     1.0  0.3577455400265982  0.5459909240370734  0.7232280484463153  1.0000
  H   H2188     1.0  0.3672490424048962  0.5351738215108666  0.6881263918218876  1.0000
  C   C3015     1.0  0.3681798685841891  0.6178730397010139  0.273617765813685  1.0000
  C   C3016     1.0  0.37147560943586666  0.6298369469836329  0.2385855371647093  1.0000
  H   H2189     1.0  0.3595658709072204  0.6110701698059487  0.2582713638286378  1.0000
  H   H2190     1.0  0.3641437203444592  0.6213633139072781  0.30783976646487404  1.0000
  H   H2191     1.0  0.37365978931471777  0.6250815910449996  0.20401674906253198  1.0000
  H   H2192     1.0  0.3819329731209765  0.6340431358883246  0.2486504790476112  1.0000
  C   C3017     1.0  0.4399657181443974  0.5304846411739496  0.051486306404811874  1.0000
  C   C3018     1.0  0.43363396460947107  0.5196618751679367  0.0863384452291382  1.0000
  H   H2193     1.0  0.43214053416687864  0.5332543550497404  0.02427427574613132  1.0000
  H   H2194     1.0  0.44881472099697756  0.5251023520161996  0.034058016707139344  1.0000
  H   H2195     1.0  0.44088122415356185  0.5178965662840749  0.11543652032146622  1.0000
  H   H2196     1.0  0.42365180082531956  0.5234363006505041  0.10082140284942791  1.0000
  C   C3019     1.0  0.39807451075753003  0.5247491254397155  0.3489714365917511  1.0000
  C   C3020     1.0  0.4124120021096537  0.5319522729080959  0.3598413200783698  1.0000
  H   H2197     1.0  0.39039846468253386  0.5266577373304195  0.37694456702599505  1.0000
  H   H2198     1.0  0.39338854075692253  0.5300819743369019  0.3173831174662082  1.0000
  H   H2199     1.0  0.42135118329141336  0.5260148515660666  0.34483078032989967  1.0000
  H   H2200     1.0  0.41353366373994876  0.5316826264883596  0.39845666662795354  1.0000
  C   C3021     1.0  0.4369847869828498  0.5913188802342164  0.9171858468725579  1.0000
  C   C3022     1.0  0.4394643248825696  0.6059466012673228  0.9392618285086437  1.0000
  H   H2201     1.0  0.447303927303102  0.5857565479578818  0.9170836432538724  1.0000
  H   H2202     1.0  0.4306945403515839  0.5850301688335275  0.9413164736704953  1.0000
  H   H2203     1.0  0.42964111400800276  0.6124781392017411  0.9394415659070219  1.0000
  H   H2204     1.0  0.4468249548779311  0.6122454079265666  0.9171541285081383  1.0000
  C   C3023     1.0  0.4634482355160178  0.6253496550563612  0.40340473147742106  1.0000
  C   C3024     1.0  0.4564107430336474  0.6333440614690157  0.4446280324348437  1.0000
  H   H2205     1.0  0.47246517790546366  0.6193159565502026  0.4182242561868305  1.0000
  H   H2206     1.0  0.46744862331505194  0.632880652711085  0.3772476536193385  1.0000
  H   H2207     1.0  0.44588980064593586  0.6370100944063402  0.43534160018530893  1.0000
  H   H2208     1.0  0.4622401196682998  0.6432772651630949  0.4515743542427501  1.0000
  C   C3025     1.0  0.5775799869707716  0.5258957259073368  0.5437655425598589  1.0000
  C   C3026     1.0  0.590684008619116  0.5169202167081247  0.5531717997416458  1.0000
  H   H2209     1.0  0.5688902156722998  0.5211428924403391  0.5623243100080754  1.0000
  H   H2210     1.0  0.5749477674431073  0.5252847648118859  0.5065880951972999  1.0000
  H   H2211     1.0  0.5941381592279252  0.5172208208089943  0.5907087219009609  1.0000
  H   H2212     1.0  0.5994938566146574  0.5219777928586867  0.5331116963775652  1.0000
  C   C3027     1.0  0.5903261337590596  0.5284268443114414  0.7708655075419367  1.0000
  C   C3028     1.0  0.589307484807233  0.5190230232656461  0.8147778209496042  1.0000
  H   H2213     1.0  0.5796411430362595  0.5307476288646965  0.756602816341228  1.0000
  H   H2214     1.0  0.5954033162321982  0.5225174211637438  0.7419066408267838  1.0000
  H   H2215     1.0  0.5792954808144904  0.5211926307055629  0.8357189899920088  1.0000
  H   H2216     1.0  0.5978321236525649  0.521622606618568  0.841974556308109  1.0000
  C   C3029     1.0  0.5196789956511184  0.5903205531910227  0.6296447763574546  1.0000
  C   C3030     1.0  0.5119695253715112  0.588412439086333  0.6776945741905316  1.0000
  H   H2217     1.0  0.51597623435687  0.5823029813243158  0.6043370458132764  1.0000
  H   H2218     1.0  0.5157553682285828  0.6002897086731301  0.6148146788599053  1.0000
  H   H2219     1.0  0.5148066261078982  0.5969393718175035  0.7017582399969163  1.0000
  H   H2220     1.0  0.5156684332548774  0.5784952194448415  0.69419164795147  1.0000
  C   C3031     1.0  0.5638206326494887  0.5192271617697299  0.055740091499760086  1.0000
  C   C3032     1.0  0.5800838108740943  0.5222720914117301  0.05568617028024666  1.0000
  H   H2221     1.0  0.5576322740630657  0.5271051171481442  0.03535892780249828  1.0000
  H   H2222     1.0  0.5591084758166214  0.5205705320942148  0.09054148094101495  1.0000
  H   H2223     1.0  0.5860185971683589  0.5157518716438949  0.08073627722008295  1.0000
  H   H2224     1.0  0.5847868347016195  0.5193345685965175  0.02141116471784969  1.0000
  C   C3033     1.0  0.6045442799900722  0.5159879700052362  0.3304006866503094  1.0000
  C   C3034     1.0  0.6035808171184349  0.5233134355596605  0.28173343798986294  1.0000
  H   H2225     1.0  0.613409768958925  0.5201537152905975  0.35161181421655235  1.0000
  H   H2226     1.0  0.5951717121397012  0.5183004887861495  0.35214891185405867  1.0000
  H   H2227     1.0  0.5931387322269158  0.5212111310970232  0.2645667543133984  1.0000
  H   H2228     1.0  0.6114793444672295  0.5184608210535185  0.25777197580216377  1.0000
  C   C3035     1.0  0.618409560117667  0.6209071526981779  0.9720727143694291  1.0000
  C   C3036     1.0  0.6099593205982069  0.6234421270154987  0.9260881344863435  1.0000
  H   H2229     1.0  0.6205154420597814  0.6312234037068686  0.9893521744527192  1.0000
  H   H2230     1.0  0.629053076816714  0.6173735347495514  0.962712272602915  1.0000
  H   H2231     1.0  0.598536850353412  0.6244789564858011  0.9341692688879311  1.0000
  H   H2232     1.0  0.6127422832730649  0.6341050609317681  0.9126712663368258  1.0000
  C   C3037     1.0  0.6035205035846335  0.6253395353335791  0.4660766953079629  1.0000
  C   C3038     1.0  0.596000143474868  0.624504740064121  0.4178894512290674  1.0000
  H   H2233     1.0  0.6030602176936188  0.6363433397039463  0.4785032456350445  1.0000
  H   H2234     1.0  0.614898832932776  0.6231137649531018  0.459563857813792  1.0000
  H   H2235     1.0  0.5958996266354013  0.6351553736328004  0.40211837558706803  1.0000
  H   H2236     1.0  0.5846363752267033  0.6227104181476039  0.42541727638466753  1.0000
  C   C3039     1.0  0.5264666881135849  0.5856305089847215  0.1134012586045378  1.0000
  C   C3040     1.0  0.5187646885089535  0.5931812529837265  0.15468905356961388  1.0000
  H   H2237     1.0  0.5216097455086356  0.5895290525595964  0.08038173639112538  1.0000
  H   H2238     1.0  0.5233665286182189  0.5744596220938528  0.11297799465267096  1.0000
  H   H2239     1.0  0.5215992538973189  0.6045216102445202  0.15695867875697644  1.0000
  H   H2240     1.0  0.5225131202355685  0.5889054557660127  0.18878664774702353  1.0000
  C   C3041     1.0  0.16442958423809276  0.4382110000998745  0.9029055343582828  1.0000
  C   C3042     1.0  0.16345515495912638  0.42212765060414875  0.897763635059584  1.0000
  H   H2241     1.0  0.16768519183999456  0.4431509716211658  0.8694955238362372  1.0000
  H   H2242     1.0  0.17302773199498434  0.44105558696534314  0.928748952834882  1.0000
  H   H2243     1.0  0.15558882615297048  0.4195276392100912  0.8692453011835931  1.0000
  H   H2244     1.0  0.15828601839910342  0.41835667269273585  0.9295489604708  1.0000
  C   C3043     1.0  0.1837493901343128  0.4255805153339876  0.5088224777575295  1.0000
  C   C3044     1.0  0.179002971850926  0.43619112469287447  0.4698688019874694  1.0000
  H   H2245     1.0  0.1750376864306651  0.4219806374400484  0.5312931768175045  1.0000
  H   H2246     1.0  0.1903720993765001  0.4319330874989567  0.5328931920893408  1.0000
  H   H2247     1.0  0.1814100985264133  0.43157931556126816  0.434830582091881  1.0000
  H   H2248     1.0  0.18518062500837282  0.4460265115243001  0.47274460036151883  1.0000
  C   C3045     1.0  0.07893171022128213  0.43107970277386515  0.5957131749538411  1.0000
  C   C3046     1.0  0.08401874971649877  0.4275028032481523  0.6470299643221435  1.0000
  H   H2249     1.0  0.06887702859237187  0.43702182811073664  0.5961008438523038  1.0000
  H   H2250     1.0  0.07634692858340118  0.42123621082383766  0.5775279793532341  1.0000
  H   H2251     1.0  0.09507111629060108  0.42459113565038503  0.6472449443476547  1.0000
  H   H2252     1.0  0.07878244475148063  0.41776151956045404  0.6561895231139997  1.0000
  C   C3047     1.0  0.08274092766735752  0.4192326511854196  0.10742692845295851  1.0000
  C   C3048     1.0  0.09055029987421666  0.41342626774853586  0.15048073146366717  1.0000
  H   H2253     1.0  0.0731808871027051  0.4244070017597049  0.1175845584452201  1.0000
  H   H2254     1.0  0.07883552572918905  0.4105648212141726  0.08553632303559204  1.0000
  H   H2255     1.0  0.10187127788967512  0.41160988223159495  0.14494094290463727  1.0000
  H   H2256     1.0  0.08647135471238433  0.40292105841701725  0.15862495016782277  1.0000
  C   C3049     1.0  0.002166996086423234  0.43951317404865176  0.8234651285378788  1.0000
  C   C3050     1.0  0.009999033765536043  0.44724191967089905  0.8637932667661242  1.0000
  H   H2257     1.0  0.002799972877839174  0.4284130748958769  0.8310986815748778  1.0000
  H   H2258     1.0  0.007790898644294944  0.44083746739574364  0.789649827803804  1.0000
  H   H2259     1.0  0.009757494430580077  0.4407503948001873  0.8964772791692309  1.0000
  H   H2260     1.0  0.004056196637145959  0.45731130538401515  0.8734391738124153  1.0000
  C   C3051     1.0  0.9088028562656569  0.4208499748754757  0.6188816780310488  1.0000
  C   C3052     1.0  0.905207866416735  0.4268706238429421  0.6674037270677075  1.0000
  H   H2261     1.0  0.9196464273642885  0.4163698187172476  0.6211372061675582  1.0000
  H   H2262     1.0  0.9032781847510261  0.41125518128907873  0.610751203951475  1.0000
  H   H2263     1.0  0.902986948834506  0.4184424416962055  0.692394273967689  1.0000
  H   H2264     1.0  0.8950600409114794  0.4325974776641665  0.6670266309573848  1.0000
  C   C3053     1.0  0.9229154672951939  0.42364473507050926  0.154076536710043  1.0000
  C   C3054     1.0  0.9313269538724821  0.42281070239913854  0.10824385254990052  1.0000
  H   H2265     1.0  0.9125706044795985  0.4283557614150865  0.14893111314863094  1.0000
  H   H2266     1.0  0.9205230562331853  0.41299359860672763  0.16505637719331656  1.0000
  H   H2267     1.0  0.9320497041890802  0.41176620952985554  0.09649184610614384  1.0000
  H   H2268     1.0  0.9426461537938754  0.4259348159998395  0.1130238100679438  1.0000
  C   C3055     1.0  0.01387567858934011  0.43534192799423793  0.3415926877489234  1.0000
  C   C3056     1.0  0.021562696188895978  0.4429024621440764  0.3839613740881673  1.0000
  H   H2269     1.0  0.015506697011134806  0.4239623125520913  0.3476523050581644  1.0000
  H   H2270     1.0  0.01948398130478774  0.4377950258336173  0.3083691107244111  1.0000
  H   H2271     1.0  0.020720625966133898  0.43622603696271345  0.41573612671124355  1.0000
  H   H2272     1.0  0.0164553657852349  0.452872025747482  0.39306102041389746  1.0000
  C   C3057     1.0  0.17041167034507684  0.6140531638983979  0.5527665095296167  1.0000
  C   C3058     1.0  0.17038270889055668  0.6275428682536947  0.5231380328989377  1.0000
  H   H2273     1.0  0.17116342192422718  0.6173807309081623  0.5898311804853502  1.0000
  H   H2274     1.0  0.18031726871041848  0.608674873478109  0.5476845226970439  1.0000
  H   H2275     1.0  0.17169158252309027  0.6249146996068762  0.48540727629039127  1.0000
  H   H2276     1.0  0.1599026376154407  0.6320706882785232  0.5255521528575454  1.0000
  C   C3059     1.0  0.08167412266435302  0.5189746730126105  0.7529340588566868  1.0000
  C   C3060     1.0  0.08157789759749055  0.5299593058380823  0.7936075748308354  1.0000
  H   H2277     1.0  0.09186928141393892  0.5189203900967833  0.7343048061542045  1.0000
  H   H2278     1.0  0.07410135131304488  0.5230221979930043  0.7265091370323938  1.0000
  H   H2279     1.0  0.08966912464808638  0.5284131335194432  0.8192113434429306  1.0000
  H   H2280     1.0  0.07204354905860395  0.528472373790409  0.8142844241697428  1.0000
  C   C3061     1.0  0.12277516038650647  0.5251109784422772  0.48817734678304187  1.0000
  C   C3062     1.0  0.13689319214089343  0.5173037413715013  0.4904927873856773  1.0000
  H   H2281     1.0  0.11514781204806497  0.5207798689707727  0.5134216405983807  1.0000
  H   H2282     1.0  0.11783439523671577  0.5234109624671712  0.453311815760405  1.0000
  H   H2283     1.0  0.1415924630275314  0.5189846055426531  0.5245195438825497  1.0000
  H   H2284     1.0  0.1445712882732419  0.5207872475735369  0.4649559797651348  1.0000
  C   C3063     1.0  0.16399469060965444  0.6261966189279995  0.09730207410393057  1.0000
  C   C3064     1.0  0.17566446765241273  0.6228617177730201  0.1315099777042664  1.0000
  H   H2285     1.0  0.15923556750628012  0.6363647989708271  0.10755944073097844  1.0000
  H   H2286     1.0  0.1684868985039053  0.6285882961119398  0.06227336971766813  1.0000
  H   H2287     1.0  0.1814849797360824  0.6136486778637944  0.12000290751908378  1.0000
  H   H2288     1.0  0.17165532365398808  0.619570019765341  0.16633039816417303  1.0000
  C   C3065     1.0  0.08250484563107296  0.5021447578548178  0.20125020283259465  1.0000
  C   C3066     1.0  0.091038375864845  0.5124729761533825  0.23280962300388855  1.0000
  H   H2289     1.0  0.08604551735177049  0.5026342692840216  0.16462817927365112  1.0000
  H   H2290     1.0  0.07137330301136831  0.5055965666152259  0.20090975905449024  1.0000
  H   H2291     1.0  0.1025512637916285  0.5117570138507574  0.22767301009925972  1.0000
  H   H2292     1.0  0.08946490114834221  0.5096406408832365  0.27070179084470397  1.0000
  C   C3067     1.0  0.12944095254845495  0.5253425136129218  0.008039477616316458  1.0000
  C   C3068     1.0  0.11756262325450353  0.5169123985884836  0.03353920999311505  1.0000
  H   H2293     1.0  0.1299118431123553  0.5227562677714419  0.9709097076740414  1.0000
  H   H2294     1.0  0.13966138393223412  0.521941362689935  0.02229360485863186  1.0000
  H   H2295     1.0  0.10719415416954003  0.5219119766853788  0.028718476755478912  1.0000
  H   H2296     1.0  0.12011472486330722  0.5176204210711053  0.0724546122701088  1.0000
  C   C3069     1.0  0.10721979795947097  0.623474637331413  0.8515852207272671  1.0000
  C   C3070     1.0  0.10252580937012484  0.6245110628417139  0.9037584059349003  1.0000
  H   H2297     1.0  0.11883541907744563  0.6220212009547146  0.8526178297022627  1.0000
  H   H2298     1.0  0.10640101465568891  0.6333816943692109  0.8328572886688125  1.0000
  H   H2299     1.0  0.09119724721306736  0.6243980833395951  0.9046888112912106  1.0000
  H   H2300     1.0  0.10559598050201596  0.6348858476575839  0.9171682255589915  1.0000
  C   C3071     1.0  0.08484114309593743  0.6162763806003703  0.3473678970572014  1.0000
  C   C3072     1.0  0.07834376449450604  0.6142404395559092  0.3958451879574012  1.0000
  H   H2301     1.0  0.09654649070968022  0.6183376310586742  0.3511265232409316  1.0000
  H   H2302     1.0  0.08040114847501391  0.6258587645229678  0.33337551680660255  1.0000
  H   H2303     1.0  0.06763164157261031  0.6089292535018127  0.39392446477865495  1.0000
  H   H2304     1.0  0.07514600740463764  0.6246921374048784  0.4103158106581944  1.0000
  C   C3073     1.0  0.967710978017899  0.5243017066614373  0.7552072083067627  1.0000
  C   C3074     1.0  0.9528306161562164  0.5178381336518069  0.7576072312145173  1.0000
  H   H2305     1.0  0.9737383723428902  0.5192472952637702  0.7267452626341847  1.0000
  H   H2306     1.0  0.9736932094848172  0.5221128507740845  0.788183734515073  1.0000
  H   H2307     1.0  0.9470812727973265  0.5231715983695533  0.7862136716583404  1.0000
  H   H2308     1.0  0.9468415306308313  0.5202821088562358  0.7253637516505727  1.0000
  C   C3075     1.0  0.9110690683065128  0.5210869448533356  0.5223626951020125  1.0000
  C   C3076     1.0  0.9162044832718689  0.5161561280882265  0.4739287526331863  1.0000
  H   H2309     1.0  0.9164972708251617  0.5159589308076314  0.551638745461362  1.0000
  H   H2310     1.0  0.8999854707505975  0.5176933384651071  0.5275257399769911  1.0000
  H   H2311     1.0  0.9098946758593893  0.5215350579635731  0.4485998765127283  1.0000
  H   H2312     1.0  0.9270422651298954  0.5195245529656698  0.4687410379192147  1.0000
  C   C3077     1.0  0.01456966437715021  0.6041480702962052  0.7070974980075597  1.0000
  C   C3078     1.0  0.02316379631580709  0.6033578879950282  0.6606371426581792  1.0000
  H   H2313     1.0  0.016355106457814298  0.6147188242427368  0.7232069028700355  1.0000
  H   H2314     1.0  0.01931412869894044  0.5972758368381996  0.7334307890013071  1.0000
  H   H2315     1.0  0.022845748896547058  0.6139022588276754  0.6438651764056038  1.0000
  H   H2316     1.0  0.018903329326537172  0.595583670434588  0.6353611304784206  1.0000
  C   C3079     1.0  0.9531441267583036  0.5181410267989188  0.29376386118797004  1.0000
  C   C3080     1.0  0.967753518330146  0.5112121296526094  0.28764010229734693  1.0000
  H   H2317     1.0  0.9449034147509229  0.5123758431506299  0.27295132773460073  1.0000
  H   H2318     1.0  0.9494915838245244  0.5167548218123489  0.3307351391818012  1.0000
  H   H2319     1.0  0.9752692532128908  0.5153251129609465  0.3143490796963317  1.0000
  H   H2320     1.0  0.9727567249865983  0.5138474039277485  0.2533927269546222  1.0000
  C   C3081     1.0  0.8964495483188734  0.5202070557401104  0.049956071534698776  1.0000
  C   C3082     1.0  0.8948820690978224  0.515805500610133  0.9976553374052444  1.0000
  H   H2321     1.0  0.9052195507847844  0.5141811350854778  0.06612045489550199  1.0000
  H   H2322     1.0  0.8871097201816102  0.5167334673516312  0.0704908930862603  1.0000
  H   H2323     1.0  0.9032028319917836  0.5210364186617249  0.978441057092355  1.0000
  H   H2324     1.0  0.884523564256711  0.5192908664017585  0.984337148611699  1.0000
  C   C3083     1.0  0.9281228223456508  0.6125240277666395  0.9256757957488878  1.0000
  C   C3084     1.0  0.9206588061581821  0.610112792129277  0.8776471434920906  1.0000
  H   H2325     1.0  0.9275586264866046  0.6239720973961118  0.9334221251927125  1.0000
  H   H2326     1.0  0.9395029525283891  0.609464623164543  0.9231383265953148  1.0000
  H   H2327     1.0  0.9107935546351127  0.6036415447723072  0.8822604033837951  1.0000
  H   H2328     1.0  0.9165149513954606  0.620236590861343  0.8642232268171464  1.0000
  C   C3085     1.0  0.9226728580130541  0.6175160234572704  0.3728035583378723  1.0000
  C   C3086     1.0  0.9315743048454721  0.61885032289423  0.4184603817886213  1.0000
  H   H2329     1.0  0.9214023343224585  0.6279319198095158  0.3544597709151669  1.0000
  H   H2330     1.0  0.9118250533258233  0.6136336655418316  0.3813111285277687  1.0000
  H   H2331     1.0  0.9428036141379913  0.6173649411731513  0.4115387298197081  1.0000
  H   H2332     1.0  0.9308579253873283  0.6298313014238784  0.4284199482163957  1.0000
  C   C3087     1.0  0.00810917332256839  0.5855548855319695  0.19404660984661773  1.0000
  C   C3088     1.0  0.014681390514374537  0.5716805237611982  0.17598546829351863  1.0000
  H   H2333     1.0  0.010270894578682169  0.5937298430923055  0.16769604996557522  1.0000
  H   H2334     1.0  0.01400325323617925  0.5886777589361467  0.22738261085168412  1.0000
  H   H2335     1.0  0.011302559372563227  0.5705502884887474  0.1385909263478206  1.0000
  H   H2336     1.0  0.010227601579953057  0.5621045085293153  0.19344889489044273  1.0000
  C   C3089     1.0  0.6901996424249323  0.5960774592140317  0.7738717036363781  1.0000
  C   C3090     1.0  0.6814938869698723  0.585222152653805  0.7471155011170353  1.0000
  H   H2337     1.0  0.701393319095046  0.5924225827194863  0.7755034372726342  1.0000
  H   H2338     1.0  0.68678732788803  0.595955496061354  0.8118350615840021  1.0000
  H   H2339     1.0  0.683875117290054  0.5859902921014156  0.7093248320423627  1.0000
  H   H2340     1.0  0.6854811458415851  0.5747649450807194  0.7577341046721959  1.0000
  C   C3091     1.0  0.6903544711674036  0.5937786862511603  0.2569698536086176  1.0000
  C   C3092     1.0  0.6809547561645274  0.5881905354460688  0.29697693150368193  1.0000
  H   H2341     1.0  0.6881737529615705  0.5880713933704405  0.2238252200688832  1.0000
  H   H2342     1.0  0.7016413011305964  0.5905348133005103  0.26457239313373965  1.0000
  H   H2343     1.0  0.6837831678114512  0.5930810026160336  0.330939193992901  1.0000
  H   H2344     1.0  0.6841496848406939  0.5773948365439495  0.30205186981082804  1.0000
  C   C3093     1.0  0.660543775952012  0.6627198661592009  0.5203609138808605  1.0000
  C   C3094     1.0  0.6598331490080551  0.6707541742000032  0.5681957316884264  1.0000
  H   H2345     1.0  0.6498890157740002  0.6599973476594473  0.5054568068663319  1.0000
  H   H2346     1.0  0.6655589505556551  0.6526528285732908  0.5244420101028572  1.0000
  H   H2347     1.0  0.6487081912785633  0.6709974249032986  0.577623134446493  1.0000
  H   H2348     1.0  0.6624194279424584  0.682001758098198  0.5625357657708732  1.0000
  C   C3095     1.0  0.6524902966092355  0.6694107908067548  0.0767224944159102  1.0000
  C   C3096     1.0  0.652911683314227  0.6616972873730046  0.028400517773485352  1.0000
  H   H2349     1.0  0.6420581928985295  0.6672605806518181  0.09300176874116685  1.0000
  H   H2350     1.0  0.6532680132240449  0.680787275424874  0.07071186435838395  1.0000
  H   H2351     1.0  0.6421656740622969  0.6609951993060261  0.014284964541056745  1.0000
  H   H2352     1.0  0.6561391463741394  0.6503590808191655  0.03277130839051499  1.0000
  C   C3097     1.0  0.6594976581871393  0.905230900907432  0.6882250711778598  1.0000
  C   C3098     1.0  0.6472809167213701  0.9026781921006064  0.7247928210910187  1.0000
  H   H2353     1.0  0.6672616577378593  0.9128531365263678  0.7008806985813056  1.0000
  H   H2354     1.0  0.6550182193685397  0.9100150182866078  0.6561472319614401  1.0000
  H   H2355     1.0  0.651288546645588  0.8996487248870891  0.7596336822746625  1.0000
  H   H2356     1.0  0.6415474126103246  0.8929460329081998  0.7135468987728913  1.0000
  C   C3099     1.0  0.678933622882757  0.7591280945482681  0.821350570909901  1.0000
  C   C3100     1.0  0.6838641034430313  0.7531556609860464  0.8698796684719864  1.0000
  H   H2357     1.0  0.6682213501652654  0.7551797024929571  0.8138086487034478  1.0000
  H   H2358     1.0  0.6851390367232951  0.7547980290285115  0.7915247355672775  1.0000
  H   H2359     1.0  0.6945413582513276  0.7566536004668345  0.8791907705605143  1.0000
  H   H2360     1.0  0.677134022289142  0.7577078780138897  0.8990429424245104  1.0000
  C   C3101     1.0  0.6310657544553235  0.9175857996942592  0.25733073811045915  1.0000
  C   C3102     1.0  0.6315028016350357  0.9034699536894139  0.2838740751619189  1.0000
  H   H2361     1.0  0.6401650980555096  0.9242212751217798  0.26752466800866764  1.0000
  H   H2362     1.0  0.6327839488602626  0.9150271295503299  0.22043769874886313  1.0000
  H   H2363     1.0  0.621336238188908  0.897544867573739  0.2778024753594527  1.0000
  H   H2364     1.0  0.6318963368955339  0.9052359938584781  0.3218043050400379  1.0000
  C   C3103     1.0  0.6407702540471966  0.8108037270046384  0.5190534124142276  1.0000
  C   C3104     1.0  0.6480890946080552  0.8071140829351744  0.5655490103907411  1.0000
  H   H2365     1.0  0.632982738001583  0.8027387383597142  0.5092700591221181  1.0000
  H   H2366     1.0  0.6343870699759997  0.820384795811994  0.5236701965686453  1.0000
  H   H2367     1.0  0.6533742282071549  0.7971158785544045  0.5619366411096128  1.0000
  H   H2368     1.0  0.6401341020697172  0.8042977709124812  0.5913818560792005  1.0000
  C   C3105     1.0  0.6767362476145007  0.8521769370551225  0.02843089691807396  1.0000
  C   C3106     1.0  0.6626159053031833  0.8480771096585867  0.004182271950268435  1.0000
  H   H2369     1.0  0.6809404140816577  0.8619722648951192  0.01125522637169048  1.0000
  H   H2370     1.0  0.6846618888001474  0.8440282094986061  0.02241966773588646  1.0000
  H   H2371     1.0  0.6558906476366769  0.8417599160027396  0.027109509856350782  1.0000
  H   H2372     1.0  0.6569584333106908  0.8581123048088855  0.9989416932955975  1.0000
  C   C3107     1.0  0.6841403841376852  0.7609503757323025  0.2913063927979887  1.0000
  C   C3108     1.0  0.6754738636116521  0.7546276035321953  0.33333639749048494  1.0000
  H   H2373     1.0  0.6796717051048258  0.7581572510826813  0.25595204653701775  1.0000
  H   H2374     1.0  0.6948247813546289  0.7562956215149914  0.28883764676732493  1.0000
  H   H2375     1.0  0.6640847435717678  0.7561589669599234  0.32677985913866914  1.0000
  H   H2376     1.0  0.6782460097200144  0.7610583554790402  0.36561758666546185  1.0000
  C   C3109     1.0  0.8587668305679216  0.6146294643781649  0.6642847545664405  1.0000
  C   C3110     1.0  0.8567208321980841  0.6021736120516804  0.631269461468284  1.0000
  H   H2377     1.0  0.8694507274686649  0.6193730110860646  0.6591534280558815  1.0000
  H   H2378     1.0  0.8579011515206371  0.6115671960957887  0.7014833475052792  1.0000
  H   H2379     1.0  0.85055915293686  0.6048012994140161  0.5995052816333476  1.0000
  H   H2380     1.0  0.8499168651310839  0.59421275025592  0.6482775533226504  1.0000
  C   C3111     1.0  0.7568105208840341  0.6887070240136517  0.40930434725947845  1.0000
  C   C3112     1.0  0.7516904341586682  0.703806191088146  0.4134665015238809  1.0000
  H   H2381     1.0  0.7502435869358033  0.6822598184920184  0.4330931205742261  1.0000
  H   H2382     1.0  0.7551976879963789  0.6847806157505141  0.37248285043096235  1.0000
  H   H2383     1.0  0.7574934983727362  0.7100934986033577  0.3882398290221085  1.0000
  H   H2384     1.0  0.7542281829518955  0.7084808552618935  0.4482615472922519  1.0000
  C   C3113     1.0  0.7633728074104889  0.6717954165318195  0.674103350485683  1.0000
  C   C3114     1.0  0.7564353558778075  0.6734338744124091  0.7229320103783985  1.0000
  H   H2385     1.0  0.7614909939111182  0.6813954047146088  0.6529331043669143  1.0000
  H   H2386     1.0  0.7577356653147539  0.66391822227093  0.6514952051798896  1.0000
  H   H2387     1.0  0.7622882001235589  0.6671672652670068  0.7505340359489323  1.0000
  H   H2388     1.0  0.7578209354799463  0.6843551514386599  0.7331558965096701  1.0000
  C   C3115     1.0  0.8607473557913282  0.6301790712888053  0.15171351856077808  1.0000
  C   C3116     1.0  0.8555320926541768  0.616562452426552  0.12953180904329337  1.0000
  H   H2389     1.0  0.869965381374364  0.6339341298240809  0.13230822320882793  1.0000
  H   H2390     1.0  0.8641487369891067  0.6277679546325718  0.18825377922477315  1.0000
  H   H2391     1.0  0.8500392227924843  0.6195606563726502  0.09531967632770161  1.0000
  H   H2392     1.0  0.8471056272551041  0.6118688797024061  0.15294242896890436  1.0000
  C   C3117     1.0  0.8580747726264802  0.678175498726052  0.8284519602771926  1.0000
  C   C3118     1.0  0.853523015759541  0.6767962820455284  0.8805229418661402  1.0000
  H   H2393     1.0  0.8631710340085783  0.6885039661308547  0.8251567746402607  1.0000
  H   H2394     1.0  0.8666559760554986  0.6703346248712235  0.8240677774618523  1.0000
  H   H2395     1.0  0.8631893539496792  0.6770217896644637  0.8999381051536876  1.0000
  H   H2396     1.0  0.849320411767779  0.6658996893975911  0.8882199316319785  1.0000
  C   C3119     1.0  0.8570007911690108  0.7093027799968306  0.31745395514674535  1.0000
  C   C3120     1.0  0.8614405131917947  0.7012099523208116  0.36097260840933776  1.0000
  H   H2397     1.0  0.8666078787411943  0.7140270045574207  0.301242346665584  1.0000
  H   H2398     1.0  0.8502325045867769  0.718659189903558  0.32794568524422746  1.0000
  H   H2399     1.0  0.8710037775551613  0.705887363232344  0.37834017506046025  1.0000
  H   H2400     1.0  0.8656531868754361  0.6905772073798153  0.3510126895552921  1.0000
  C   C3121     1.0  0.7553880025868753  0.7167956845748231  0.9574047329566914  1.0000
  C   C3122     1.0  0.7479318180120477  0.7032031547943113  0.9707370188010899  1.0000
  H   H2401     1.0  0.7506738005610247  0.7250055319519991  0.9772463320325475  1.0000
  H   H2402     1.0  0.7525056132186296  0.7192108714873928  0.9204775082467764  1.0000
  H   H2403     1.0  0.7487653669552421  0.7012952460927601  0.009002376674843177  1.0000
  H   H2404     1.0  0.7544959259217093  0.6943746708542845  0.9580285274569448  1.0000
  C   C3123     1.0  0.7634497512030102  0.6764082762626552  0.17155229822646365  1.0000
  C   C3124     1.0  0.7546085521765176  0.6729682802467581  0.21484222683896315  1.0000
  H   H2405     1.0  0.7594950694101429  0.6867242834530921  0.1589322658764222  1.0000
  H   H2406     1.0  0.7611150073713894  0.6690657526104592  0.14164364271007757  1.0000
  H   H2407     1.0  0.7544985620392456  0.6826216482663697  0.23542110167444086  1.0000
  H   H2408     1.0  0.7600471899923649  0.6647664284403724  0.235879960679712  1.0000
  C   C3125     1.0  0.8481290480317781  0.9137440504029222  0.5758151876745722  1.0000
  C   C3126     1.0  0.847876954531076  0.9274310060191286  0.6046612779828996  1.0000
  H   H2409     1.0  0.8591631040584762  0.9098704965950769  0.5758821486661249  1.0000
  H   H2410     1.0  0.8449299657267509  0.9160670725209233  0.539314398752966  1.0000
  H   H2411     1.0  0.8452701303044273  0.9253599348407009  0.6418281525573187  1.0000
  H   H2412     1.0  0.8394855751487313  0.9340370061295673  0.5918576315454954  1.0000
  C   C3127     1.0  0.7446308109184986  0.8346836398265488  0.4435848506717082  1.0000
  C   C3128     1.0  0.7335509470211752  0.8274472373587993  0.4757719420322401  1.0000
  H   H2413     1.0  0.7431241905511023  0.8459462953171107  0.44235840724748116  1.0000
  H   H2414     1.0  0.7426714870941312  0.8313990125190337  0.4063192967413168  1.0000
  H   H2415     1.0  0.7314249621464369  0.8339197674507716  0.5075044035027568  1.0000
  H   H2416     1.0  0.7375996381705765  0.8172491416021598  0.48973507090231866  1.0000
  C   C3129     1.0  0.7492685534963098  0.8732081448998135  0.5912549826215219  1.0000
  C   C3130     1.0  0.7424374133235687  0.8586375772434067  0.5869553821113007  1.0000
  H   H2417     1.0  0.7437047291222693  0.8801160171648783  0.6166649167843855  1.0000
  H   H2418     1.0  0.7471273128167045  0.8787091015122374  0.557305759904342  1.0000
  H   H2419     1.0  0.7481551360915812  0.8517216073559177  0.6110296207058254  1.0000
  H   H2420     1.0  0.7438065683180213  0.8544454386512853  0.5522625399616153  1.0000
  C   C3131     1.0  0.799469946190066  0.7634153428871896  0.5764812733273852  1.0000
  C   C3132     1.0  0.7906424553610798  0.7550956793723851  0.5414289563809437  1.0000
  H   H2421     1.0  0.8104931031898425  0.7587357514830627  0.5815280175328249  1.0000
  H   H2422     1.0  0.7946365928261038  0.762558956771687  0.6106031849175166  1.0000
  H   H2423     1.0  0.7892290794523642  0.7611129750952607  0.5083502265539479  1.0000
  H   H2424     1.0  0.779763568194667  0.7534723711709119  0.555568298386687  1.0000
  C   C3133     1.0  0.8501559927894137  0.9208372242410442  0.20827370599392214  1.0000
  C   C3134     1.0  0.8349118050863381  0.9229779254720135  0.1950203636343014  1.0000
  H   H2425     1.0  0.852936103976412  0.9098078812671201  0.2011969864656239  1.0000
  H   H2426     1.0  0.8512276996666303  0.9221734157186084  0.24681821486296865  1.0000
  H   H2427     1.0  0.830248187864401  0.9316685735468626  0.21611554295727697  1.0000
  H   H2428     1.0  0.8339461964587598  0.9268036152228245  0.15728044394270038  1.0000
  C   C3135     1.0  0.7511041763819245  0.8397477189238061  0.9034729406551234  1.0000
  C   C3136     1.0  0.7381464228725606  0.8380640408700094  0.9352441690154863  1.0000
  H   H2429     1.0  0.7508753246360269  0.8314642511294279  0.876544049262829  1.0000
  H   H2430     1.0  0.7501177525597041  0.8493342712020883  0.8829194405111814  1.0000
  H   H2431     1.0  0.7352424594544004  0.8476717490792421  0.954102498794333  1.0000
  H   H2432     1.0  0.7408598226364665  0.830756220880655  0.9639069976627224  1.0000
  C   C3137     1.0  0.7461395616179168  0.87650336124059  0.259638072908854  1.0000
  C   C3138     1.0  0.7368903497912261  0.8892163820553817  0.24789699167950854  1.0000
  H   H2433     1.0  0.7421715055033344  0.8668320542002426  0.24196495268048876  1.0000
  H   H2434     1.0  0.745749380554797  0.873415277008697  0.29809165579989744  1.0000
  H   H2435     1.0  0.7379974066453622  0.8973774743370855  0.27589232496884625  1.0000
  H   H2436     1.0  0.7407493193134663  0.8941858100045295  0.21475658725503005  1.0000
  C   C3139     1.0  0.832114337131714  0.8775569386081118  0.8635007529609208  1.0000
  C   C3140     1.0  0.8384577409162918  0.8723664235037363  0.8163884090095804  1.0000
  H   H2437     1.0  0.8408525718346842  0.8818367161731935  0.8837934576640788  1.0000
  H   H2438     1.0  0.8249298896712509  0.8861650303401688  0.8531570418973972  1.0000
  H   H2439     1.0  0.8455880027050275  0.8634922372329211  0.8244977375128745  1.0000
  H   H2440     1.0  0.8459927532029933  0.8805361630774344  0.8030737444787484  1.0000
  C   C3141     1.0  0.831578646061803  0.8205485327548501  0.2778793042866025  1.0000
  C   C3142     1.0  0.8368892937279305  0.8232299333014509  0.3277557274839808  1.0000
  H   H2441     1.0  0.8405017708927216  0.8180673348770151  0.25348929175296653  1.0000
  H   H2442     1.0  0.8249549434645783  0.810924095013274  0.2786151703411387  1.0000
  H   H2443     1.0  0.8419332073755746  0.8333860926101748  0.32680664353529015  1.0000
  H   H2444     1.0  0.845369400943058  0.8155692402635026  0.33561730031853004  1.0000
  C   C3143     1.0  0.8276144505471702  0.7835591404783981  0.031596319201902125  1.0000
  C   C3144     1.0  0.8208851669591805  0.7753391959870408  0.9909980051398283  1.0000
  H   H2445     1.0  0.8392542575703713  0.7829183059977877  0.031724144210513366  1.0000
  H   H2446     1.0  0.82432505595684  0.7795510322507004  0.06637420181085929  1.0000
  H   H2447     1.0  0.8247750451769339  0.7795026711985165  0.9566223466343396  1.0000
  H   H2448     1.0  0.8094761245042846  0.7776984431665771  0.9918579252418726  1.0000
  C   C3145     1.0  0.8427791537974977  0.42993532398625856  0.4110171389381403  1.0000
  C   C3146     1.0  0.8520742352575148  0.4368002627502127  0.3718766772442754  1.0000
  H   H2449     1.0  0.8339411186934451  0.4369020173443534  0.4204903571114798  1.0000
  H   H2450     1.0  0.8494229998116584  0.4287661166795721  0.4443672369940599  1.0000
  H   H2451     1.0  0.8462157848422474  0.44564553508098714  0.35545713726302963  1.0000
  H   H2452     1.0  0.8540036767500241  0.4293537420616441  0.34148555016243914  1.0000
  C   C3147     1.0  0.8520723527303334  0.4252018993831053  0.8943169061259806  1.0000
  C   C3148     1.0  0.857448154413472  0.41233139745667435  0.866743074657153  1.0000
  H   H2453     1.0  0.8455281774515029  0.43191466296527325  0.8711061118962135  1.0000
  H   H2454     1.0  0.8453036325995938  0.4224742643523259  0.9251471563418936  1.0000
  H   H2455     1.0  0.8668002705555772  0.40768971850328894  0.885213735537537  1.0000
  H   H2456     1.0  0.8617618693536395  0.4155351196361961  0.832328649261818  1.0000
  C   C3149     1.0  0.8556500041671806  0.34716559000305675  0.6466669652626741  1.0000
  C   C3150     1.0  0.8549767010152932  0.3369945437841341  0.6890920398053307  1.0000
  H   H2457     1.0  0.8535857686871892  0.35788421204096954  0.6594565146492251  1.0000
  H   H2458     1.0  0.8666490630111582  0.34691502994584666  0.630864171256255  1.0000
  H   H2459     1.0  0.865574502027164  0.3348374932695272  0.7036824874383759  1.0000
  H   H2460     1.0  0.8508212505874319  0.32682038816357084  0.6765773829104168  1.0000
  C   C3151     1.0  0.849833845518085  0.3717230089325501  0.13698597710818564  1.0000
  C   C3152     1.0  0.8540053337915696  0.3664158741341295  0.1864359645172551  1.0000
  H   H2461     1.0  0.8440655791492512  0.3816791191026182  0.14017120574846254  1.0000
  H   H2462     1.0  0.8598543791798715  0.3736594093531744  0.11797821859029525  1.0000
  H   H2463     1.0  0.864423105511107  0.3715777014370015  0.1935510985091283  1.0000
  H   H2464     1.0  0.8563528876830758  0.3550847238609259  0.1834466848838375  1.0000
  C   C3153     1.0  0.8472840256087079  0.1252941680831003  0.48026185272897914  1.0000
  C   C3154     1.0  0.8442139763492428  0.11276304239377719  0.5127802247845609  1.0000
  H   H2465     1.0  0.8494413720727656  0.12157865996660266  0.4436623844514007  1.0000
  H   H2466     1.0  0.8574283859997255  0.1301270894729484  0.4919976475642547  1.0000
  H   H2467     1.0  0.8402777225874082  0.11700640684895071  0.5469479517899651  1.0000
  H   H2468     1.0  0.8355831144209365  0.10604782162117846  0.4992576287536443  1.0000
  C   C3155     1.0  0.831863678777254  0.27594127963455267  0.41664186222856064  1.0000
  C   C3156     1.0  0.8219003563148888  0.2633997915676233  0.4042117876387658  1.0000
  H   H2469     1.0  0.836127242851419  0.2803077375179638  0.3839508013000274  1.0000
  H   H2470     1.0  0.8411506667379722  0.27236472278871016  0.4366314803383753  1.0000
  H   H2471     1.0  0.8275315205921129  0.25719809492807144  0.37639125778000754  1.0000
  H   H2472     1.0  0.8123248649526883  0.26729282994409814  0.38657990128414615  1.0000
  C   C3157     1.0  0.8537853550532557  0.12606542943370713  0.9087417134115008  1.0000
  C   C3158     1.0  0.8485208250985056  0.1111453788205245  0.9232546272648535  1.0000
  H   H2473     1.0  0.8596253556977265  0.12490283551571502  0.8750709074486713  1.0000
  H   H2474     1.0  0.8614356077725602  0.12999290344684092  0.9358996818801595  1.0000
  H   H2475     1.0  0.8442808015351166  0.10532842742612195  0.8915785539977497  1.0000
  H   H2476     1.0  0.8396825138965118  0.11290796991588521  0.9472971474949586  1.0000
  C   C3159     1.0  0.8347719672421838  0.22162308287354848  0.7274395423887039  1.0000
  C   C3160     1.0  0.8263434073153695  0.22198126698246604  0.7743545276280996  1.0000
  H   H2477     1.0  0.8423868151335173  0.23035372123594952  0.7295118088641219  1.0000
  H   H2478     1.0  0.8418256560875089  0.21202396489620481  0.7253884214895657  1.0000
  H   H2479     1.0  0.8166080164805987  0.2281126513536744  0.7729166284410749  1.0000
  H   H2480     1.0  0.8326451289934743  0.22744536894680878  0.8014948747831918  1.0000
  C   C3161     1.0  0.8367207704239603  0.16609528374545318  0.20848269477282058  1.0000
  C   C3162     1.0  0.8415623412779211  0.17022626945533348  0.25838977905580457  1.0000
  H   H2481     1.0  0.8304911133439945  0.15635171911215082  0.2105997193846975  1.0000
  H   H2482     1.0  0.8466136070176487  0.16359918712978147  0.18990842056866564  1.0000
  H   H2483     1.0  0.8486883656675809  0.1798509864185704  0.2552775026536929  1.0000
  H   H2484     1.0  0.848601516167798  0.16185819069872512  0.27140276669837854  1.0000
  C   C3163     1.0  0.8291353004163364  0.2708004953142892  0.03729762472108238  1.0000
  C   C3164     1.0  0.8175217694549766  0.2640224568214228  0.0694727335883891  1.0000
  H   H2485     1.0  0.8286749967136819  0.2665615513514199  0.0012888522626526289  1.0000
  H   H2486     1.0  0.8395955754464667  0.26839324077391236  0.05013862834324751  1.0000
  H   H2487     1.0  0.8075275518202301  0.2687827867001514  0.061105429054481845  1.0000
  H   H2488     1.0  0.8194354606569766  0.26717164176498354  0.10632242451861156  1.0000
  C   C3165     1.0  0.6509100557026326  0.4191543407601082  0.8404344535023988  1.0000
  C   C3166     1.0  0.647391481338177  0.430325586018009  0.8031019385804548  1.0000
  H   H2489     1.0  0.6415064046033111  0.4126250879946333  0.8473102900560392  1.0000
  H   H2490     1.0  0.6520628460571758  0.4246288976270082  0.8739466676431299  1.0000
  H   H2491     1.0  0.6565261935729867  0.4379597813872716  0.8008675560202251  1.0000
  H   H2492     1.0  0.6471201985507877  0.4251381243631832  0.7686557948207001  1.0000
  C   C3167     1.0  0.74837135701482  0.3363648611659858  0.568202780213853  1.0000
  C   C3168     1.0  0.7561657437567092  0.32203011957321404  0.5665992406793033  1.0000
  H   H2493     1.0  0.7552183155273039  0.3444279451002879  0.5850593287715475  1.0000
  H   H2494     1.0  0.7479706817966852  0.3405499283182661  0.5324843776145985  1.0000
  H   H2495     1.0  0.7508277323947102  0.3147690179564571  0.541957595787938  1.0000
  H   H2496     1.0  0.7556773312381415  0.31698702752965197  0.6022330609734388  1.0000
  C   C3169     1.0  0.752673741985528  0.37410551068451925  0.8443957247921433  1.0000
  C   C3170     1.0  0.7602820854094966  0.37038360733107667  0.7977662048325246  1.0000
  H   H2497     1.0  0.7553543434495511  0.3850020947376012  0.8561033255257124  1.0000
  H   H2498     1.0  0.7562518795028218  0.3676380293058934  0.8735907171090871  1.0000
  H   H2499     1.0  0.7555854397361522  0.36050344746100144  0.7829537286485418  1.0000
  H   H2500     1.0  0.7581800009867231  0.378920315427027  0.771048769203028  1.0000
  C   C3171     1.0  0.6812377914182512  0.43038550674894954  0.28535109366506123  1.0000
  C   C3172     1.0  0.6747855325243548  0.441493624187231  0.3186670063726619  1.0000
  H   H2501     1.0  0.6922849029696684  0.4334989258828978  0.279780996446697  1.0000
  H   H2502     1.0  0.6764663153025955  0.43154889839406857  0.25023745454740837  1.0000
  H   H2503     1.0  0.6783658528944917  0.44068831004356407  0.35502717721200755  1.0000
  H   H2504     1.0  0.6789929087283703  0.4520695144918644  0.3085343986456647  1.0000
  C   C3173     1.0  0.6470380918301107  0.3522996264849936  0.4772979477870973  1.0000
  C   C3174     1.0  0.6481684671979477  0.36130447435188395  0.5228525676191608  1.0000
  H   H2505     1.0  0.6366026682067463  0.3530412462247315  0.46125902817888736  1.0000
  H   H2506     1.0  0.6480616275160421  0.34102115562845053  0.48798703659652387  1.0000
  H   H2507     1.0  0.6379205524727428  0.3612629937716177  0.5405126480754867  1.0000
  H   H2508     1.0  0.6498291190763203  0.37249471118585664  0.5117722856485583  1.0000
  C   C3175     1.0  0.6602157115040731  0.36121354166363456  0.03482796238211311  1.0000
  C   C3176     1.0  0.6590200854538032  0.3508277875264564  0.9914914019196898  1.0000
  H   H2509     1.0  0.6648118618031983  0.371559371285635  0.023607590968657124  1.0000
  H   H2510     1.0  0.649317932684638  0.36402371919544735  0.048347950458621836  1.0000
  H   H2511     1.0  0.6478316937949422  0.34929562884001053  0.9826384539838904  1.0000
  H   H2512     1.0  0.6623395054588028  0.3403035042127022  0.002275645822375383  1.0000
  C   C3177     1.0  0.7568707941008374  0.3311649968246251  0.09064756124868514  1.0000
  C   C3178     1.0  0.7506044166823073  0.3180762654344327  0.11470805521862794  1.0000
  H   H2513     1.0  0.7494392470210134  0.33396998822497587  0.062246937747318404  1.0000
  H   H2514     1.0  0.7557910285635195  0.339557321929128  0.11687265737713431  1.0000
  H   H2515     1.0  0.7578603503285961  0.3146020249796069  0.14294515293009774  1.0000
  H   H2516     1.0  0.7498774061908202  0.30971979263954114  0.0890690439793999  1.0000
  C   C3179     1.0  0.7505509222992084  0.36666864691478895  0.3839508013000274  1.0000
  C   C3180     1.0  0.7571335294950262  0.371545379168856  0.33664356562064185  1.0000
  H   H2517     1.0  0.7542898579476499  0.37322320773371176  0.41311407525255134  1.0000
  H   H2518     1.0  0.75446671894577  0.3561303614513373  0.39036495943822597  1.0000
  H   H2519     1.0  0.7546399122829952  0.36395658189575897  0.30740522487232463  1.0000
  H   H2520     1.0  0.7522854062192603  0.38139463954338254  0.3240612428816326  1.0000
  C   C3181     1.0  0.6588172658918585  0.11612393908881913  0.801723951859556  1.0000
  C   C3182     1.0  0.6428454481208972  0.1194188626169277  0.8027706578854049  1.0000
  H   H2521     1.0  0.661269547495814  0.10749315322923242  0.8261999564033964  1.0000
  H   H2522     1.0  0.6615074231797121  0.11167057956187915  0.7668901392013389  1.0000
  H   H2523     1.0  0.6403223291723682  0.12742792431027125  0.7758946304338099  1.0000
  H   H2524     1.0  0.640408453983447  0.12397040646172847  0.8395710091376413  1.0000
  C   C3183     1.0  0.7457660846815024  0.220303152483422  0.6225151928884568  1.0000
  C   C3184     1.0  0.7358212678301244  0.2139589414567031  0.5853976579920239  1.0000
  H   H2525     1.0  0.7445538660020167  0.21465968974227662  0.6569084727075122  1.0000
  H   H2526     1.0  0.7426127861169202  0.23107203015781255  0.6317840038244252  1.0000
  H   H2527     1.0  0.7396370991564606  0.20403264163591883  0.573859221868693  1.0000
  H   H2528     1.0  0.7356364011275704  0.22035105742008051  0.5534431679705696  1.0000
  C   C3185     1.0  0.746443918261958  0.15993585413679043  0.8843820095371993  1.0000
  C   C3186     1.0  0.7554462417937642  0.14871255728390453  0.861396768121083  1.0000
  H   H2529     1.0  0.750981802363448  0.17086348345100918  0.8785951701619673  1.0000
  H   H2530     1.0  0.7473593869205241  0.15857542478210213  0.9232123361122941  1.0000
  H   H2531     1.0  0.7532003876147499  0.1486119237657142  0.8227215091053733  1.0000
  H   H2532     1.0  0.7527978064934225  0.13827080359715266  0.8743907247450052  1.0000
  C   C3187     1.0  0.6815613618238389  0.2713511029231108  0.7301461761525153  1.0000
  C   C3188     1.0  0.6870691069111662  0.2761371772509438  0.6814408654547651  1.0000
  H   H2533     1.0  0.6711060839482629  0.27547271931081974  0.7381709223506902  1.0000
  H   H2534     1.0  0.6883188682378977  0.27524393147434734  0.7604442626987206  1.0000
  H   H2535     1.0  0.681078772634339  0.27073786832010854  0.6535639473925942  1.0000
  H   H2536     1.0  0.6977303677969938  0.27140298359528614  0.6765879556985567  1.0000
  C   C3189     1.0  0.6549478726086447  0.1099385986547541  0.3289102759488565  1.0000
  C   C3190     1.0  0.6390110134465642  0.11229391120608233  0.32733739749991253  1.0000
  H   H2537     1.0  0.6581688724255423  0.10483295624645832  0.2964236222576945  1.0000
  H   H2538     1.0  0.6578470464793373  0.10271752221169124  0.3582201592302537  1.0000
  H   H2539     1.0  0.6350970265970963  0.11783948017871959  0.3598836112309294  1.0000
  H   H2540     1.0  0.6357358238216735  0.11977802083303231  0.2989061129129401  1.0000
  C   C3191     1.0  0.7394238773821756  0.19745211182376768  0.10827803789821949  1.0000
  C   C3192     1.0  0.7504235508057864  0.19509857054505814  0.14770502215067527  1.0000
  H   H2541     1.0  0.7418383392683964  0.2067544932269595  0.08797194099675086  1.0000
  H   H2542     1.0  0.7398012251537484  0.18829162585589443  0.08415375477316604  1.0000
  H   H2543     1.0  0.7488024739029119  0.18484690021810227  0.16465707822790013  1.0000
  H   H2544     1.0  0.7484817445593963  0.2026329506345951  0.1773306793711837  1.0000
  C   C3193     1.0  0.7392221105849356  0.15008385374604918  0.42215733337486877  1.0000
  C   C3194     1.0  0.7461144335367738  0.16364237807779305  0.44308792962913346  1.0000
  H   H2545     1.0  0.7452253926812669  0.14710907338697796  0.3894345540819159  1.0000
  H   H2546     1.0  0.7400299906657515  0.1409429262749674  0.44546680696060825  1.0000
  H   H2547     1.0  0.7429239734459347  0.1654092701304856  0.4804098717629376  1.0000
  H   H2548     1.0  0.7424115259716513  0.1735378070779449  0.4240815808163284  1.0000
  C   C3195     1.0  0.642767508706949  0.1984189123481434  0.5348914490477796  1.0000
  C   C3196     1.0  0.6469135509130444  0.20264828953906158  0.4837720183914219  1.0000
  H   H2549     1.0  0.6397455587664199  0.18690527491369144  0.5352051084292629  1.0000
  H   H2550     1.0  0.6331885003103285  0.204328685382162  0.5454994798148005  1.0000
  H   H2551     1.0  0.6372381718092812  0.2042659193298117  0.4618158616875881  1.0000
  H   H2552     1.0  0.6517852142976287  0.213133970544627  0.48334205834039984  1.0000
  C   C3197     1.0  0.6472829904413616  0.19429909079048693  0.03367605711427232  1.0000
  C   C3198     1.0  0.6512392575801557  0.2001817708444475  0.9840058679166491  1.0000
  H   H2553     1.0  0.6372781694382176  0.19867402523549887  0.046587933659601836  1.0000
  H   H2554     1.0  0.6446656023600528  0.18290199496688245  0.03110341581882055  1.0000
  H   H2555     1.0  0.6563839195618938  0.21077893176433649  0.9877310136046029  1.0000
  H   H2556     1.0  0.6414959023831817  0.20209978459507624  0.963283203162469  1.0000
  C   C3199     1.0  0.6812289685899472  0.27061030617886267  0.20789308562088618  1.0000
  C   C3200     1.0  0.67955056365633  0.2634117724198905  0.25660755940169083  1.0000
  H   H2557     1.0  0.6720851798810429  0.26743184012375804  0.1875076928083684  1.0000
  H   H2558     1.0  0.6906972477815312  0.2660621777104998  0.18811492327386933  1.0000
  H   H2559     1.0  0.6698872363967544  0.2669708473742569  0.27332031804068285  1.0000
  H   H2560     1.0  0.6880395872494155  0.2668356696615486  0.28019862157822256  1.0000
