data_image0
_chemical_formula_sum              "C1600 H1280"
_cell_length_a       57.61242680236793
_cell_length_b       57.420389445449445
_cell_length_c       29.28790163306215
_cell_angle_alpha    90.09170000014909
_cell_angle_beta     90.59330000059829
_cell_angle_gamma    89.79459999996122

_space_group_name_H-M_alt    "P 1"
_space_group_IT_number       1

loop_
  _space_group_symop_operation_xyz
  'x, y, z'

loop_
  _atom_site_type_symbol
  _atom_site_label
  _atom_site_symmetry_multiplicity
  _atom_site_fract_x
  _atom_site_fract_y
  _atom_site_fract_z
  _atom_site_occupancy
  C   C1        1.0  0.07341698695682639  0.058772645390966924  0.49110683651399695  1.0000
  C   C2        1.0  0.054876294296690144  0.0677782674243257  0.5149780699685593  1.0000
  C   C3        1.0  0.05640811533443115  0.0888072015636818  0.5359844822432651  1.0000
  C   C4        1.0  0.07700625033525035  0.10114163795068129  0.5358444850223186  1.0000
  C   C5        1.0  0.09553752126421855  0.09194423523790554  0.5112732654630237  1.0000
  C   C6        1.0  0.09343892538104355  0.07152508001084683  0.4875044689993977  1.0000
  H   H1        1.0  0.039246848554175484  0.05762917134422624  0.5186623870759078  1.0000
  H   H2        1.0  0.04176035071506272  0.09529056276888961  0.5546519165582549  1.0000
  H   H3        1.0  0.11156383044651058  0.10179979630515741  0.5096684192716856  1.0000
  H   H4        1.0  0.10817866088603899  0.0650622470320629  0.46815412141149815  1.0000
  C   C7        1.0  0.11919110207788998  0.11078449744454291  0.6005607613296169  1.0000
  C   C8        1.0  0.1053597054561456  0.12953447781437527  0.5849288765127114  1.0000
  C   C9        1.0  0.11496076169691131  0.15164853864726247  0.5899482890685984  1.0000
  C   C10       1.0  0.1376553921782865  0.1546478834844213  0.604852871249855  1.0000
  C   C11       1.0  0.1508958908322013  0.1356340217279045  0.6189106409727034  1.0000
  C   C12       1.0  0.14173588844219998  0.11389492392659958  0.6165204445175191  1.0000
  C   C13       1.0  0.07966858915708466  0.1250734153116027  0.5649604924128284  1.0000
  C   C14       1.0  0.06674559740743424  0.1251410758770448  0.6129010041710972  1.0000
  C   C15       1.0  0.058654679836302806  0.14545358596571584  0.6320055029807491  1.0000
  C   C16       1.0  0.04559290102432176  0.14508396826297146  0.6710237528284513  1.0000
  C   C17       1.0  0.0429652253308572  0.1239659123079459  0.6941915856119165  1.0000
  C   C18       1.0  0.05318124542645902  0.10409287601236568  0.6773714317001479  1.0000
  C   C19       1.0  0.06470145023017071  0.10460014393584167  0.637345884774904  1.0000
  C   C20       1.0  0.08575406265845333  0.15009465203607503  0.49419701907391383  1.0000
  C   C21       1.0  0.07752526927258813  0.16181838142291693  0.45678020085118526  1.0000
  C   C22       1.0  0.05371010276074292  0.1647108057909876  0.4489847458409198  1.0000
  C   C23       1.0  0.0394254025558356  0.16017510412152108  0.48567426142799935  1.0000
  C   C24       1.0  0.04749108373285591  0.1472975357585286  0.5223603624487144  1.0000
  C   C25       1.0  0.07095781437838987  0.14199664831806463  0.5267924695898991  1.0000
  C   C26       1.0  0.04291575345558932  0.17668361419648743  0.4035334529624073  1.0000
  C   C27       1.0  0.024902275909437277  0.2500188751105879  0.41471957237267004  1.0000
  C   C28       1.0  0.04469845112418079  0.24206369275157122  0.43684937698131243  1.0000
  C   C29       1.0  0.048219547727120025  0.21821533474669258  0.43961859030296174  1.0000
  C   C30       1.0  0.03419904447366484  0.20231755314662342  0.416665875200463  1.0000
  C   C31       1.0  0.012688205275797282  0.21134107021104065  0.40204470202746395  1.0000
  C   C32       1.0  0.008424281232957798  0.23451907740272834  0.39945987528950033  1.0000
  C   C33       1.0  0.021540373649091782  0.16322512963330943  0.3789315023058314  1.0000
  C   C34       1.0  0.00825603417465759  0.14646324012294784  0.3990672001575772  1.0000
  C   C35       1.0  0.9879446399028288  0.13869062075115277  0.37997977417974793  1.0000
  C   C36       1.0  0.9798908634881152  0.14798851434788238  0.33881649374183614  1.0000
  C   C37       1.0  0.9943338646093159  0.16241297213879963  0.3146321445516446  1.0000
  C   C38       1.0  0.014397883752928609  0.1700770785895429  0.3347937931077609  1.0000
  C   C39       1.0  0.07398194093349433  0.19598679738809807  0.35088083962106087  1.0000
  C   C40       1.0  0.08709590803487348  0.19591453263700598  0.31267286637166636  1.0000
  C   C41       1.0  0.0898392033036149  0.17577603232568664  0.2874890736065712  1.0000
  C   C42       1.0  0.0818116520577467  0.15528487951058328  0.30534520695334405  1.0000
  C   C43       1.0  0.06942599694551033  0.15543856787960347  0.344761936695789  1.0000
  C   C44       1.0  0.06293817896556553  0.17596533871296063  0.36545762343132077  1.0000
  H   H5        1.0  0.11347743754292561  0.09301002301649625  0.5983617805908473  1.0000
  H   H6        1.0  0.10502538601419381  0.16718777910686988  0.5810704165207708  1.0000
  H   H7        1.0  0.14512489151270538  0.1718335298882425  0.6052933503108819  1.0000
  H   H8        1.0  0.15112487701502625  0.09871411557037385  0.6284816704925344  1.0000
  H   H9        1.0  0.06135228231379538  0.1614243923247065  0.6137478166295053  1.0000
  H   H10       1.0  0.038086488468957756  0.16074851069018603  0.6847468950475738  1.0000
  H   H11       1.0  0.05131544172082689  0.08748018197087394  0.6950349835039602  1.0000
  H   H12       1.0  0.07181872031667433  0.08824765598557281  0.6246744289960623  1.0000
  H   H13       1.0  0.10426619639963422  0.14612579008280463  0.4961160053707904  1.0000
  H   H14       1.0  0.09019334047313947  0.16573921126933722  0.4308807149760807  1.0000
  H   H15       1.0  0.020968565373005177  0.16439119871810973  0.48410697546667136  1.0000
  H   H16       1.0  0.0344632547033108  0.14137757383989463  0.5465081757788053  1.0000
  H   H17       1.0  0.05764214606227851  0.2541799125749754  0.44806622748885605  1.0000
  H   H18       1.0  0.0644807019502041  0.21269068447730777  0.45434902959962636  1.0000
  H   H19       1.0  0.9988580001975991  0.20044776251054183  0.3890727644085421  1.0000
  H   H20       1.0  0.9924184888633675  0.24116772797163483  0.38342165707521336  1.0000
  H   H21       1.0  0.013327908074901584  0.13865052422879176  0.4310343704624854  1.0000
  H   H22       1.0  0.976628191699391  0.12694833171743497  0.39783454169997495  1.0000
  H   H23       1.0  0.9887371707089873  0.16847961196726727  0.28136060989547856  1.0000
  H   H24       1.0  0.023695649480518943  0.18359043737036648  0.31813719692485415  1.0000
  H   H25       1.0  0.07187263666209737  0.21255604196052252  0.36630785045609354  1.0000
  H   H26       1.0  0.09512887146182998  0.2119728808195738  0.30111251048784904  1.0000
  H   H27       1.0  0.08418868184450852  0.13896983651371014  0.28743409908810197  1.0000
  H   H28       1.0  0.06249517941190232  0.1390545240150533  0.3580377707211557  1.0000
  C   C45       1.0  0.04082021914643137  0.8263935615792961  0.6319474553525518  1.0000
  C   C46       1.0  0.017799085073318288  0.8293869262639919  0.6205701202258743  1.0000
  C   C47       1.0  0.008342336693486274  0.8512147388456143  0.6151853490689805  1.0000
  C   C48       1.0  0.022080904303830584  0.8704632015010221  0.6183984560180212  1.0000
  C   C49       1.0  0.04581674925018432  0.867038107221657  0.6212598626315133  1.0000
  C   C50       1.0  0.055031676299935724  0.8452238550858837  0.6283621606697752  1.0000
  H   H29       1.0  0.0056112887877057815  0.8147785822373604  0.6203208568812623  1.0000
  H   H30       1.0  0.9903584807087775  0.8535712663549798  0.6088923032591166  1.0000
  H   H31       1.0  0.05750771632145155  0.8818381489847621  0.6194842881219477  1.0000
  H   H32       1.0  0.0738306119248969  0.8435296165579624  0.6309128417440935  1.0000
  C   C51       1.0  0.029403756206578313  0.9013771946560218  0.7010002309428273  1.0000
  C   C52       1.0  0.023145648117357087  0.9116836027802122  0.6593766669589743  1.0000
  C   C53       1.0  0.023881652762749006  0.9355657309928855  0.6574610952284623  1.0000
  C   C54       1.0  0.030103791653395273  0.9488071208971158  0.6950452272030537  1.0000
  C   C55       1.0  0.03625466013590062  0.9382609955106167  0.735258575278348  1.0000
  C   C56       1.0  0.03641907697562741  0.9143967538733823  0.737764866989927  1.0000
  C   C57       1.0  0.01186779710127217  0.896308945733259  0.6197779408292989  1.0000
  C   C58       1.0  0.9856424090846575  0.8987975395138037  0.6349591028860841  1.0000
  C   C59       1.0  0.9710232767725048  0.9156423247411293  0.6159126517046295  1.0000
  C   C60       1.0  0.9485417730038918  0.9183944474067317  0.6296050628264712  1.0000
  C   C61       1.0  0.9396635228946556  0.9046173680442879  0.6627980624562526  1.0000
  C   C62       1.0  0.9536839561099673  0.8881674589285313  0.6834561889617743  1.0000
  C   C63       1.0  0.9763090859531136  0.8852403297861159  0.6708803410411401  1.0000
  C   C64       1.0  0.03591807357295074  0.9150648486059656  0.5556626282021613  1.0000
  C   C65       1.0  0.03946244443987758  0.9219485679470724  0.5111810721711808  1.0000
  C   C66       1.0  0.024080390166597354  0.9165273531062909  0.4765368818364661  1.0000
  C   C67       1.0  0.005180125597309626  0.9031513922018216  0.48859371566968884  1.0000
  C   C68       1.0  0.002073607833303681  0.8960446833034069  0.5329864929751911  1.0000
  C   C69       1.0  0.01636659022535336  0.9031087107028243  0.5682931091846283  1.0000
  C   C70       1.0  0.027744267127088218  0.9268279524173767  0.4254447253237186  1.0000
  C   C71       1.0  0.047083919560073774  0.0015605333353179152  0.4395605426747644  1.0000
  C   C72       1.0  0.055821311245379174  0.9889685748763674  0.4039500300588823  1.0000
  C   C73       1.0  0.050318930536503104  0.9655700043574283  0.39856867346835295  1.0000
  C   C74       1.0  0.03626730557943758  0.9540138667017481  0.4301568269067963  1.0000
  C   C75       1.0  0.02724350144336518  0.9679773574034379  0.4647497987460428  1.0000
  C   C76       1.0  0.03274896602343391  0.9907906273030019  0.46995701245198007  1.0000
  C   C77       1.0  0.0026439600630854265  0.9258899535038708  0.4001120574651292  1.0000
  C   C78       1.0  0.9950257996614423  0.9046796655943204  0.38274557293503264  1.0000
  C   C79       1.0  0.9720912964064514  0.9012430347478706  0.3711394618619305  1.0000
  C   C80       1.0  0.9571098050488684  0.9195889635587442  0.3716550613829773  1.0000
  C   C81       1.0  0.9641954667147059  0.9410951700939506  0.38665525142244134  1.0000
  C   C82       1.0  0.9867507069848933  0.9440862149598868  0.4007608250743935  1.0000
  C   C83       1.0  0.04699120226087275  0.9089418406333716  0.3529159211743321  1.0000
  C   C84       1.0  0.06488275669092701  0.8983171385168548  0.3295336536231731  1.0000
  C   C85       1.0  0.08507038772399061  0.8923662198731879  0.35351688485449273  1.0000
  C   C86       1.0  0.08672921268739658  0.8963314881654693  0.39907061472394173  1.0000
  C   C87       1.0  0.06826063993707127  0.905916121643885  0.4219994278618886  1.0000
  C   C88       1.0  0.04813575299505482  0.9129726110015646  0.39980474649231973  1.0000
  H   H33       1.0  0.028025160002930205  0.882910588907138  0.704213337891868  1.0000
  H   H34       1.0  0.018518793803536715  0.9444012183564244  0.6276246143350327  1.0000
  H   H35       1.0  0.030869808000110632  0.9673363779346233  0.6895921647188689  1.0000
  H   H36       1.0  0.04135617771150521  0.9054675449971437  0.7701895891876849  1.0000
  H   H37       1.0  0.976278557347799  0.9270523646523949  0.5889341628583273  1.0000
  H   H38       1.0  0.9374764922844688  0.9306176632735055  0.6112005501215517  1.0000
  H   H39       1.0  0.9470569594079354  0.8773614655728696  0.7100932211716214  1.0000
  H   H40       1.0  0.9864104120244536  0.8727927640032872  0.6896741143116182  1.0000
  H   H41       1.0  0.04880000838679108  0.9192652878867653  0.581637234537286  1.0000
  H   H42       1.0  0.054960554469114076  0.9323606394466667  0.5037851214255675  1.0000
  H   H43       1.0  0.9919224154169413  0.8979377187344832  0.4652414963025378  1.0000
  H   H44       1.0  0.9867511067601218  0.8851557193396451  0.5385658944148642  1.0000
  H   H45       1.0  0.06791998876640025  0.9971810496234788  0.3812465783009956  1.0000
  H   H46       1.0  0.05686716329519117  0.9568171982994571  0.3682917135138965  1.0000
  H   H47       1.0  0.01539911370687097  0.9605115660565946  0.48908199865981933  1.0000
  H   H48       1.0  0.024560107455538382  0.0010189703417662344  0.4964199017772352  1.0000
  H   H49       1.0  0.006187120514704603  0.8897104590431931  0.38422749473724693  1.0000
  H   H50       1.0  0.9672516977613235  0.8835855776896218  0.3604040652117882  1.0000
  H   H51       1.0  0.9520186937213064  0.9553214752348216  0.38828741414469575  1.0000
  H   H52       1.0  0.9899460751343662  0.9610791159805548  0.41457957515172356  1.0000
  H   H53       1.0  0.03235147902852442  0.9157299015515682  0.3326176899636338  1.0000
  H   H54       1.0  0.06308622287529701  0.8957181103533419  0.2937978264217121  1.0000
  H   H55       1.0  0.10263483665616706  0.8909581579996372  0.41574052771567016  1.0000
  H   H56       1.0  0.07242393092206481  0.9091471355413657  0.4574870160886469  1.0000
  C   C89       1.0  0.25084948123323375  0.2605862364290495  0.805178650725219  1.0000
  C   C90       1.0  0.23957406189962474  0.27182222577346815  0.7695954546402533  1.0000
  C   C91       1.0  0.21858540584007022  0.2637402778191131  0.7528743231530566  1.0000
  C   C92       1.0  0.2087819483410718  0.2429593397835428  0.769431555454755  1.0000
  C   C93       1.0  0.22039613042412107  0.23246892020806412  0.8052469420525099  1.0000
  C   C94       1.0  0.240722058428548  0.24086282394681477  0.8222412388488707  1.0000
  H   H57       1.0  0.2469750660861787  0.28706071597027083  0.7541855166370434  1.0000
  H   H58       1.0  0.21071116180781765  0.2736452648294463  0.7254553552457277  1.0000
  H   H59       1.0  0.21330400856081502  0.21747315116382235  0.821466132284118  1.0000
  H   H60       1.0  0.24836361796186576  0.23312131221967533  0.8524294200778488  1.0000
  C   C95       1.0  0.20451370955876302  0.19135504937088144  0.7340634770507559  1.0000
  C   C96       1.0  0.18494470395361529  0.20488163628259504  0.7405477385770345  1.0000
  C   C97       1.0  0.1635078781631516  0.1945088072039801  0.7316357203655615  1.0000
  C   C98       1.0  0.16212532676868055  0.1723741248269958  0.7142965523663813  1.0000
  C   C99       1.0  0.18169475996050424  0.1591580926035805  0.7087308091921664  1.0000
  C   C100      1.0  0.2029072411256036  0.16892558514153608  0.717676973067285  1.0000
  C   C101      1.0  0.18546288793840446  0.2321631148000844  0.7493504906648419  1.0000
  C   C102      1.0  0.18056402010436298  0.24078547252508953  0.6990300261504826  1.0000
  C   C103      1.0  0.15884446815639763  0.24879547662709525  0.6844976317029617  1.0000
  C   C104      1.0  0.1551650174695972  0.2534980774888475  0.6391453612490212  1.0000
  C   C105      1.0  0.17194328468080405  0.24916200359668253  0.6068777091040326  1.0000
  C   C106      1.0  0.19389098760302584  0.24314413718349176  0.6211608402069414  1.0000
  C   C107      1.0  0.19829364319474554  0.2388281746673324  0.6665301834927045  1.0000
  C   C108      1.0  0.16110034565469267  0.22607029735497022  0.8225212332907637  1.0000
  C   C109      1.0  0.14842915656733552  0.23379272158256922  0.8579405301902311  1.0000
  C   C110      1.0  0.14331449426319717  0.25714148683246346  0.8641994303364494  1.0000
  C   C111      1.0  0.14936755600703433  0.2721656313411795  0.8289645200206678  1.0000
  C   C112      1.0  0.16210185901876534  0.2643757456596256  0.7919369623634979  1.0000
  C   C113      1.0  0.16769466894950602  0.24101617000701528  0.7874092473641058  1.0000
  C   C114      1.0  0.12954217050074324  0.2652953438678987  0.9077624680153663  1.0000
  C   C115      1.0  0.0569509771409402  0.2748909064649327  0.8701407758107648  1.0000
  C   C116      1.0  0.067423840274441  0.25379616530615073  0.8644521082474261  1.0000
  C   C117      1.0  0.09033473489506846  0.2508432936613501  0.8741938660854845  1.0000
  C   C118      1.0  0.10380126040311208  0.2695050488488746  0.8885726050466005  1.0000
  C   C119      1.0  0.09399371040274952  0.29155858909093374  0.8845263439046099  1.0000
  C   C120      1.0  0.07066026480220153  0.29415763793862165  0.8766079645052206  1.0000
  C   C121      1.0  0.1388973458891749  0.28747172235734547  0.9354580157982236  1.0000
  C   C122      1.0  0.15954410888810155  0.2984123780775167  0.9248148124399242  1.0000
  C   C123      1.0  0.16580297737440688  0.31865059842446936  0.9461968270147304  1.0000
  C   C124      1.0  0.1515051278204246  0.3290531424102302  0.9770849943484412  1.0000
  C   C125      1.0  0.13237975168348923  0.3168092735879945  0.9914295876459117  1.0000
  C   C126      1.0  0.1264283254914257  0.29551071544324753  0.9725675230481428  1.0000
  C   C127      1.0  0.1111247043393882  0.23825691789837886  0.9722567975089689  1.0000
  C   C128      1.0  0.11368550945956235  0.22302376798859685  0.007467805860198684  1.0000
  C   C129      1.0  0.1355864455391942  0.21637552751600814  0.021836301122221125  1.0000
  C   C130      1.0  0.15474726977511502  0.2243640553236821  2.7465751846200703e-05  1.0000
  C   C131      1.0  0.15203713172845806  0.2397840905052111  0.9654925415407971  1.0000
  C   C132      1.0  0.13037617501381193  0.24635029723956642  0.9487133624254032  1.0000
  H   H61       1.0  0.2216865496278183  0.19848743086454265  0.7371536596106727  1.0000
  H   H62       1.0  0.14780196580799645  0.2042965884615943  0.7341385975107759  1.0000
  H   H63       1.0  0.14514723867129975  0.165511810108823  0.7074332739736378  1.0000
  H   H64       1.0  0.21933252663918826  0.16019889694629003  0.7101068794370796  1.0000
  H   H65       1.0  0.14481804927744363  0.2517856009796606  0.7083688651575242  1.0000
  H   H66       1.0  0.13849809608592728  0.2599894659446755  0.6290040991463105  1.0000
  H   H67       1.0  0.2078792299792064  0.24061757084288823  0.5976720381852083  1.0000
  H   H68       1.0  0.21522384544801568  0.23327958333073032  0.6752612296868565  1.0000
  H   H69       1.0  0.16585465428078452  0.2079344603483409  0.8233919477137237  1.0000
  H   H70       1.0  0.14400451697169298  0.22056593605028418  0.8823512651303922  1.0000
  H   H71       1.0  0.1451433217859376  0.2903518801792694  0.8323449407215713  1.0000
  H   H72       1.0  0.16810752805957055  0.276384123855639  0.7661945465411625  1.0000
  H   H73       1.0  0.0567324518328556  0.2384820018473096  0.8570356701036255  1.0000
  H   H74       1.0  0.09753410140699599  0.2333522276894936  0.8733777847243572  1.0000
  H   H75       1.0  0.10371751387203952  0.30773723424729  0.8906008574671427  1.0000
  H   H76       1.0  0.06383530729742139  0.3113564072540757  0.8799644832415724  1.0000
  H   H77       1.0  0.17095475265320212  0.2921791763241428  0.8983758250792209  1.0000
  H   H78       1.0  0.18133619529713219  0.32688413602145416  0.936803354945856  1.0000
  H   H79       1.0  0.12065364976021069  0.3243072854767002  0.016239826850725114  1.0000
  H   H80       1.0  0.11071267404756095  0.2868922429341047  0.9818961183560908  1.0000
  H   H81       1.0  0.09388861308362899  0.2448179177832539  0.9642359811186432  1.0000
  H   H82       1.0  0.09849581385375977  0.21769799342130772  0.0248069738593788  1.0000
  H   H83       1.0  0.17171337201927156  0.2189098900835349  0.01142187371034642  1.0000
  H   H84       1.0  0.16769602783405096  0.24693267837595376  0.9495943205474566  1.0000
  C   C133      1.0  0.47923733190180007  0.3020070466217399  0.6301035895156952  1.0000
  C   C134      1.0  0.4804196749963083  0.32560893458124457  0.6283758189352334  1.0000
  C   C135      1.0  0.46467601393325886  0.33858913699979  0.652912892830883  1.0000
  C   C136      1.0  0.44675347832882883  0.3283454408933852  0.6770846081255257  1.0000
  C   C137      1.0  0.44719128490194054  0.3042108185179434  0.6812230625593593  1.0000
  C   C138      1.0  0.4636275394910025  0.29155308215153597  0.6592195969062051  1.0000
  H   H85       1.0  0.49311840915800104  0.33472650324430003  0.6072123366077585  1.0000
  H   H86       1.0  0.4669259497289188  0.3570702088431678  0.6503690408892939  1.0000
  H   H87       1.0  0.434243480141583  0.2945296680622844  0.6988729560977133  1.0000
  H   H88       1.0  0.46405179790670853  0.2727941759746901  0.6627844041907943  1.0000
  C   C139      1.0  0.397610222011111  0.3162786842934764  0.6383531818524458  1.0000
  C   C140      1.0  0.4097184317806746  0.3375042777517679  0.6421535942161889  1.0000
  C   C141      1.0  0.4107981843161714  0.3504940032676553  0.6021929240518713  1.0000
  C   C142      1.0  0.40280352408494874  0.341873364830737  0.5607571612180685  1.0000
  C   C143      1.0  0.3928069787936262  0.32063424737193563  0.5574689338090079  1.0000
  C   C144      1.0  0.38932529841957864  0.3079771257756014  0.5973886291769508  1.0000
  C   C145      1.0  0.4238812035296695  0.34328457629162906  0.6881239011821129  1.0000
  C   C146      1.0  0.4269942021768169  0.3708569697476732  0.7013894915083859  1.0000
  C   C147      1.0  0.4220722969281244  0.38018744941643806  0.7441159604279882  1.0000
  C   C148      1.0  0.4262371461590721  0.4033495847138682  0.7543869760525518  1.0000
  C   C149      1.0  0.4364540020765664  0.4173025456254791  0.7233588114978945  1.0000
  C   C150      1.0  0.4421349564686128  0.40912890086442094  0.6811889168957137  1.0000
  C   C151      1.0  0.4370798224368596  0.3865066986823249  0.6709827780320766  1.0000
  C   C152      1.0  0.3867384870708544  0.337167683091106  0.7354702783929501  1.0000
  C   C153      1.0  0.37489458460794345  0.3311622450776634  0.7740753657105416  1.0000
  C   C154      1.0  0.38659946125753825  0.32225660968861924  0.812038514551598  1.0000
  C   C155      1.0  0.41052343969728483  0.3177039434017997  0.8073605586321658  1.0000
  C   C156      1.0  0.42175545210551557  0.3234841983178024  0.7680998745725809  1.0000
  C   C157      1.0  0.41022915342793076  0.33345995855234234  0.7311542665081601  1.0000
  C   C158      1.0  0.3744036321786077  0.31970151167355515  0.8619697185003989  1.0000
  C   C159      1.0  0.2995683751179295  0.30118603855463205  0.858500519074017  1.0000
  C   C160      1.0  0.31417559150071395  0.28912917565484086  0.8867765431388478  1.0000
  C   C161      1.0  0.3370493201216059  0.2946092553777428  0.8882243192774165  1.0000
  C   C162      1.0  0.34635064143763733  0.3132575303120973  0.8638579736999945  1.0000
  C   C163      1.0  0.3303534848215906  0.3264429977915471  0.840048202439994  1.0000
  C   C164      1.0  0.3074072379959175  0.3200306416850025  0.835732190555204  1.0000
  C   C165      1.0  0.38180569876652504  0.3436192785900337  0.8872750698280719  1.0000
  C   C166      1.0  0.4045940155397729  0.3487509375807501  0.8973207240725752  1.0000
  C   C167      1.0  0.41140598687341307  0.37081002671783897  0.9111531324153634  1.0000
  C   C168      1.0  0.39494780744827407  0.3879969319011782  0.914919399115461  1.0000
  C   C169      1.0  0.37194114745767903  0.382896364291732  0.9089200060129484  1.0000
  C   C170      1.0  0.365479196474857  0.3608409325204914  0.8953061299174913  1.0000
  C   C171      1.0  0.3933670068834316  0.2960520788440736  0.930745914215146  1.0000
  C   C172      1.0  0.40270611585646937  0.2763686169362268  0.9498606567238916  1.0000
  C   C173      1.0  0.40490437921800554  0.2565747082923756  0.9243811625116265  1.0000
  C   C174      1.0  0.39760251836040356  0.25653898768260824  0.8795854663751074  1.0000
  C   C175      1.0  0.3880283908384064  0.27635852215161333  0.8607609620073485  1.0000
  C   C176      1.0  0.3863713032999853  0.2970310191758961  0.885117063885677  1.0000
  H   H89       1.0  0.3962894429517479  0.30426646735175555  0.6658336119543367  1.0000
  H   H90       1.0  0.41985526260826656  0.3661704817620296  0.6009636801606337  1.0000
  H   H91       1.0  0.4066147180592702  0.3515002131776496  0.5296094868406521  1.0000
  H   H92       1.0  0.3824454021621775  0.2901098898349249  0.5965793769485527  1.0000
  H   H93       1.0  0.4135895684559397  0.3705523785916947  0.7715041972380362  1.0000
  H   H94       1.0  0.42149088788225375  0.4100963870565714  0.7871804714176809  1.0000
  H   H95       1.0  0.4519770522826446  0.4198987419725966  0.6572630503793184  1.0000
  H   H96       1.0  0.4441254462881665  0.3815694868262838  0.6383361090206231  1.0000
  H   H97       1.0  0.37773459594399744  0.3468624023629657  0.7086283722012299  1.0000
  H   H98       1.0  0.3567351882470047  0.3357338120777467  0.7718797995381366  1.0000
  H   H99       1.0  0.42070212825719255  0.3110077516952634  0.8358517003779632  1.0000
  H   H100      1.0  0.4403329838976293  0.32110568262488826  0.7664745409830555  1.0000
  H   H101      1.0  0.30734369762537966  0.274680892391278  0.9059800643730717  1.0000
  H   H102      1.0  0.3470902072602829  0.28475519606155314  0.9118053145909923  1.0000
  H   H103      1.0  0.3356377159269423  0.3423867978307385  0.8246143624722322  1.0000
  H   H104      1.0  0.29573617930425755  0.33021007292224297  0.8139609154148392  1.0000
  H   H105      1.0  0.4172600525908572  0.33594680480711814  0.8926564264186013  1.0000
  H   H106      1.0  0.42979014429442264  0.3738933734611237  0.9187061532137459  1.0000
  H   H107      1.0  0.3592208529000276  0.39651269510687376  0.9143798976298624  1.0000
  H   H108      1.0  0.346680855157408  0.35797500530189685  0.893960790769859  1.0000
  H   H109      1.0  0.39235784866832124  0.3114700730023223  0.9526196263464473  1.0000
  H   H110      1.0  0.40896508346921373  0.27675317382012743  0.9843955809349407  1.0000
  H   H111      1.0  0.39889270734845295  0.2410022166877888  0.8572712751827795  1.0000
  H   H112      1.0  0.3820375267497548  0.2758318920457501  0.8249626482414162  1.0000
  C   C177      1.0  0.9840522793533455  0.7809990953729177  0.19621225137599171  1.0000
  C   C178      1.0  0.992211881006823  0.8030877115337  0.1881050464566429  1.0000
  C   C179      1.0  0.9768878859231175  0.821505588382683  0.18493530450043202  1.0000
  C   C180      1.0  0.953301441290609  0.8180259308662271  0.18925951134449692  1.0000
  C   C181      1.0  0.9458821612442616  0.7952316408630742  0.1947501340586918  1.0000
  C   C182      1.0  0.9610701588407268  0.7771538203993978  0.20067269941800214  1.0000
  H   H113      1.0  0.01115366405667828  0.8065194931678082  0.18707794489418653  1.0000
  H   H114      1.0  0.9841793272184178  0.8387584059401579  0.17744716046297593  1.0000
  H   H115      1.0  0.9276801278785536  0.7914840897487607  0.19727349860209353  1.0000
  H   H116      1.0  0.9547808474027258  0.7592908595505269  0.20522465783858249  1.0000
  C   C183      1.0  0.9112628413940784  0.8181183140057748  0.11728864733907778  1.0000
  C   C184      1.0  0.9287102008421215  0.8334102543321281  0.12959611034345836  1.0000
  C   C185      1.0  0.9433891407059716  0.8415950514930206  0.09620745606098835  1.0000
  C   C186      1.0  0.9415232556537827  0.8336095189849034  0.05188433590932289  1.0000
  C   C187      1.0  0.9241301481902094  0.8183007471739174  0.04030929739013805  1.0000
  C   C188      1.0  0.9084543167726103  0.8111408770262346  0.07263499716332394  1.0000
  C   C189      1.0  0.9345767357744911  0.8380849798181996  0.18251096238160217  1.0000
  C   C190      1.0  0.943148350577575  0.8636687165128663  0.19602308439939567  1.0000
  C   C191      1.0  0.9558475300361727  0.8666665215330744  0.23607833805201128  1.0000
  C   C192      1.0  0.9625695411058139  0.8881937674719516  0.25125506117252244  1.0000
  C   C193      1.0  0.9572246487970268  0.9076880959201009  0.22646087042962243  1.0000
  C   C194      1.0  0.9437272741640117  0.9052359921476315  0.18715204098429725  1.0000
  C   C195      1.0  0.9359876428382525  0.8838688192752591  0.17397147336050142  1.0000
  C   C196      1.0  0.8921265222216808  0.8470178131938191  0.20486373817384965  1.0000
  C   C197      1.0  0.8745501352202256  0.8484911987365749  0.23547976456830583  1.0000
  C   C198      1.0  0.8769316261965832  0.8392849860961945  0.27870305289395003  1.0000
  C   C199      1.0  0.8976420150101257  0.8289071457365901  0.2897146879629843  1.0000
  C   C200      1.0  0.9154784101537332  0.8279898260790953  0.25973889276188106  1.0000
  C   C201      1.0  0.9129333426511156  0.8367879683402915  0.21582961805359893  1.0000
  C   C202      1.0  0.8586369775751297  0.8440163975363053  0.31752906265532804  1.0000
  C   C203      1.0  0.7844124818320283  0.8421804184544249  0.2930254515100511  1.0000
  C   C204      1.0  0.7988533591927737  0.8300272917103714  0.26391729762217975  1.0000
  C   C205      1.0  0.8224691144231473  0.8324368969189664  0.26740254551047493  1.0000
  C   C206      1.0  0.832556173821252  0.8467653205620335  0.3010008541677283  1.0000
  C   C207      1.0  0.8179433593462905  0.8598625029507795  0.32809304807396983  1.0000
  C   C208      1.0  0.7941313411556818  0.8575949742719063  0.3236913305734297  1.0000
  C   C209      1.0  0.8698412990219698  0.8665663563656225  0.3397862305893681  1.0000
  C   C210      1.0  0.8854786453052869  0.8635539637614346  0.3753496221894194  1.0000
  C   C211      1.0  0.8976986164852668  0.8817817803241059  0.393730232929787  1.0000
  C   C212      1.0  0.8941010553162183  0.9033386476979813  0.3761657035505467  1.0000
  C   C213      1.0  0.8785367229536559  0.9070047564902508  0.34139722300016234  1.0000
  C   C214      1.0  0.8665517517405914  0.8888746220873353  0.32321124254257405  1.0000
  C   C215      1.0  0.8486194444761501  0.8260799579115662  0.39591896996946296  1.0000
  C   C216      1.0  0.8442256568113914  0.8075755478114334  0.42379548976964143  1.0000
  C   C217      1.0  0.8474594893439789  0.7853878441053324  0.4081055573245385  1.0000
  C   C218      1.0  0.8533990948901174  0.781405661282561  0.3631801076661666  1.0000
  C   C219      1.0  0.8561639229844868  0.8000632839234226  0.3352482718908824  1.0000
  C   C220      1.0  0.8553235457876912  0.8224984030362598  0.3510822990365693  1.0000
  H   H117      1.0  0.899904657506114  0.8102490827796707  0.1423737591362374  1.0000
  H   H118      1.0  0.9575132903886447  0.852778723468128  0.10421563855576525  1.0000
  H   H119      1.0  0.9539484209390782  0.8394704835847195  0.026753276687171645  1.0000
  H   H120      1.0  0.8944189751373994  0.7990693646157568  0.06506763518621034  1.0000
  H   H121      1.0  0.9613012714595933  0.8520209229723016  0.25681397521400834  1.0000
  H   H122      1.0  0.9729701770802247  0.8891342759636465  0.2819188914960824  1.0000
  H   H123      1.0  0.938675299505133  0.920429646686922  0.16793178837488706  1.0000
  H   H124      1.0  0.9248699305539557  0.8836232706916317  0.14340837274469578  1.0000
  H   H125      1.0  0.8903334533462478  0.8553544905816877  0.17193297724086565  1.0000
  H   H126      1.0  0.8582152824399069  0.8572067581981182  0.22559937533584667  1.0000
  H   H127      1.0  0.9008388926851433  0.8226927674781223  0.3240095681586056  1.0000
  H   H128      1.0  0.932154342006937  0.8213267963542552  0.2708488673422143  1.0000
  H   H129      1.0  0.7922981961127318  0.8173296646715056  0.23993679804395174  1.0000
  H   H130      1.0  0.8328621598605543  0.8199623165357609  0.24795044384491188  1.0000
  H   H131      1.0  0.8249745343990218  0.8699001266008747  0.3556236723014195  1.0000
  H   H132      1.0  0.7830894191291529  0.866269248837801  0.3472135953455352  1.0000
  H   H133      1.0  0.8903018416231004  0.8469009041240582  0.3880381508000837  1.0000
  H   H134      1.0  0.9100740597005328  0.8787052395891413  0.4209204248906911  1.0000
  H   H135      1.0  0.8766778602234006  0.923877126345048  0.3241833695865612  1.0000
  H   H136      1.0  0.855157615968652  0.8927628972087995  0.29405118724596163  1.0000
  H   H137      1.0  0.8449914811499695  0.8432012546273033  0.4091367563666323  1.0000
  H   H138      1.0  0.8393954172586643  0.8118447821002045  0.457418724761356  1.0000
  H   H139      1.0  0.8565357463869079  0.7643923844082335  0.35001695433082997  1.0000
  H   H140      1.0  0.861155414095802  0.7962007153135857  0.3005494484943349  1.0000
  C   C221      1.0  0.7185178103732922  0.8338616337948821  0.2588504225938254  1.0000
  C   C222      1.0  0.6981820641457517  0.8460322007042487  0.2661493996546854  1.0000
  C   C223      1.0  0.6773141728157466  0.8350968891441954  0.2638384211391586  1.0000
  C   C224      1.0  0.6762431326840791  0.8116296640741572  0.25316858416321575  1.0000
  C   C225      1.0  0.6967825156558853  0.7992579401267766  0.24913598128668332  1.0000
  C   C226      1.0  0.7175863404877174  0.8106101589320489  0.2501108399837621  1.0000
  H   H141      1.0  0.6987333666706047  0.8647085651359604  0.2704568751235641  1.0000
  H   H142      1.0  0.6611716273740601  0.8447920081045198  0.2680738492577453  1.0000
  H   H143      1.0  0.6962838550148971  0.7804003434210303  0.24250557632000197  1.0000
  H   H144      1.0  0.7332654888207741  0.8007984635227047  0.24382633058980954  1.0000
  C   C227      1.0  0.6649948149218811  0.7712091600259952  0.18008798608931817  1.0000
  C   C228      1.0  0.6516776308705647  0.7746854520715877  0.21959144581742265  1.0000
  C   C229      1.0  0.6354759739461691  0.7580198517229546  0.22965724600347678  1.0000
  C   C230      1.0  0.6327167660094155  0.7386918482383434  0.20313562613675137  1.0000
  C   C231      1.0  0.6454859732654319  0.7358272504803239  0.16414537573323865  1.0000
  C   C232      1.0  0.6618192009805747  0.7520810433054456  0.1530750101227341  1.0000
  C   C233      1.0  0.652013468182244  0.798837068694842  0.24768479058175  1.0000
  C   C234      1.0  0.633297745485647  0.8127277898159354  0.2150446092463891  1.0000
  C   C235      1.0  0.609864268639797  0.8079526033043486  0.21523445913625805  1.0000
  C   C236      1.0  0.5961961713336482  0.8110028455992646  0.1769045858676491  1.0000
  C   C237      1.0  0.6061108830798809  0.8191617902364402  0.1373034695415185  1.0000
  C   C238      1.0  0.6288218530589428  0.8262690597716786  0.13729390875569777  1.0000
  C   C239      1.0  0.642117417359955  0.8231581917709674  0.17603592018450778  1.0000
  C   C240      1.0  0.6534345007539063  0.7769258410390075  0.3253668582885139  1.0000
  C   C241      1.0  0.6506513141154763  0.7758443944149791  0.3713033610474288  1.0000
  C   C242      1.0  0.6405824460713397  0.793918342117367  0.3954682472093424  1.0000
  C   C243      1.0  0.6302052045115338  0.8119041272072941  0.3702243580762313  1.0000
  C   C244      1.0  0.6325619496956758  0.8129189161523506  0.3236875745504286  1.0000
  C   C245      1.0  0.644605174177955  0.7955717141378839  0.30017248036768873  1.0000
  C   C246      1.0  0.6403054999197567  0.7936967445830536  0.4495413201583413  1.0000
  C   C247      1.0  0.5724937815523392  0.7622887627085433  0.4747237470968906  1.0000
  C   C248      1.0  0.590621052853743  0.7490461699650222  0.4596552657301356  1.0000
  C   C249      1.0  0.6109492413311447  0.7586736049874135  0.44889938168180604  1.0000
  C   C250      1.0  0.6149540267875525  0.7824416107030675  0.45456414728059297  1.0000
  C   C251      1.0  0.595664506214887  0.7958382394473309  0.4662419642473507  1.0000
  C   C252      1.0  0.5749779226198544  0.7858749025511157  0.47727101360484414  1.0000
  C   C253      1.0  0.6454445553321432  0.818896586359742  0.47084479970676285  1.0000
  C   C254      1.0  0.6595733679971463  0.8348703899048614  0.4493569335746556  1.0000
  C   C255      1.0  0.6618703927490733  0.8573277756344638  0.46472248221512635  1.0000
  C   C256      1.0  0.6504948730531442  0.8637452070877437  0.5037953651246613  1.0000
  C   C257      1.0  0.6386426546715156  0.8478755203395119  0.5291792514787189  1.0000
  C   C258      1.0  0.6363223849675158  0.8258140051742725  0.5123044645051175  1.0000
  C   C259      1.0  0.6524793809140945  0.767568899626995  0.5180887399266636  1.0000
  C   C260      1.0  0.6682445936282463  0.7545443656639659  0.5427897130078114  1.0000
  C   C261      1.0  0.6911615014850432  0.7525731039799289  0.5299065541143678  1.0000
  C   C262      1.0  0.6973899860476094  0.763738090536844  0.4904580689047326  1.0000
  C   C263      1.0  0.6813858182463218  0.7752924724002791  0.46322007301472484  1.0000
  C   C264      1.0  0.6584464226589579  0.7777295183101895  0.47709345615388765  1.0000
  H   H145      1.0  0.6775760147934309  0.783848784388658  0.17064192969842965  1.0000
  H   H146      1.0  0.6234484899522329  0.7607780104759502  0.257471279239184  1.0000
  H   H147      1.0  0.6189336454118982  0.7271462924004523  0.210865862929454  1.0000
  H   H148      1.0  0.6715669686039144  0.7496706533215848  0.12239752153371605  1.0000
  H   H149      1.0  0.6021848516488448  0.7993689960684178  0.244262029257926  1.0000
  H   H150      1.0  0.5784021884661885  0.8059899033816643  0.17596011681121482  1.0000
  H   H151      1.0  0.6373397779759336  0.8320397746696738  0.10572555980216884  1.0000
  H   H152      1.0  0.6605425774759213  0.8251843012366484  0.17252506304847848  1.0000
  H   H153      1.0  0.6639736604570722  0.7639160336942664  0.3095676597197454  1.0000
  H   H154      1.0  0.6563569455974552  0.7607070814236263  0.38910691007218756  1.0000
  H   H155      1.0  0.6223726539684721  0.8263620389895703  0.38711963244802006  1.0000
  H   H156      1.0  0.6257715720798384  0.8278291920411601  0.30508740719282057  1.0000
  H   H157      1.0  0.588761197837801  0.7305289280651045  0.45615192064010823  1.0000
  H   H158      1.0  0.6248859972522093  0.7474536542346859  0.4390756742509984  1.0000
  H   H159      1.0  0.5963336187817131  0.8145757219101679  0.46857069850797317  1.0000
  H   H160      1.0  0.5613353406830807  0.7972516403964638  0.48933809113716054  1.0000
  H   H161      1.0  0.6682982188909062  0.8307304046009937  0.4183868166481957  1.0000
  H   H162      1.0  0.6725174079558557  0.8689042573168618  0.4455428629454543  1.0000
  H   H163      1.0  0.6310913900826389  0.8531926782853357  0.5600025420515032  1.0000
  H   H164      1.0  0.6268275511920368  0.813515650362129  0.5325767450114453  1.0000
  H   H165      1.0  0.6353564147416301  0.7696124008818636  0.5320201706940237  1.0000
  H   H166      1.0  0.6627253834748649  0.7454894753157777  0.5726671686976157  1.0000
  H   H167      1.0  0.7149412381113593  0.7613488180506752  0.4775271060821853  1.0000
  H   H168      1.0  0.6866502226923952  0.7838741467098529  0.43176850223086344  1.0000
  C   C265      1.0  0.5580045838061328  0.5669470029603549  0.06133824580284986  1.0000
  C   C266      1.0  0.5478873282672062  0.5699478390585838  0.1030106380857159  1.0000
  C   C267      1.0  0.5470734923297282  0.5914509975131728  0.12292438912376598  1.0000
  C   C268      1.0  0.5577871452104011  0.6106014878882787  0.10373896509127421  1.0000
  C   C269      1.0  0.5687082578257865  0.6072382446126137  0.06186067445662586  1.0000
  C   C270      1.0  0.5686017707114858  0.585537336884488  0.04075080082107424  1.0000
  H   H169      1.0  0.5390152996001466  0.5552023455466994  0.11859267023369904  1.0000
  H   H170      1.0  0.5366005638971908  0.5916997964018084  0.15319554431540272  1.0000
  H   H171      1.0  0.5758588697163742  0.6215995664981426  0.042802955206168225  1.0000
  H   H172      1.0  0.5759481749997063  0.5832883638179825  0.007478049559292321  1.0000
  C   C271      1.0  0.5984876506231968  0.6412015388857587  0.12897636654829273  1.0000
  C   C272      1.0  0.5764236750355723  0.6509705707078657  0.1298064476315146  1.0000
  C   C273      1.0  0.5752941657492011  0.6743462879945484  0.1414726550726329  1.0000
  C   C274      1.0  0.5945330946360948  0.6874761627197873  0.14841071246876011  1.0000
  C   C275      1.0  0.616320274594159  0.6777995239085682  0.14551037979871215  1.0000
  C   C276      1.0  0.6182342327637225  0.6541513703498849  0.13726659222478138  1.0000
  C   C277      1.0  0.553187164038406  0.6363593830136469  0.1238070545290019  1.0000
  C   C278      1.0  0.5432882393579254  0.6375157818867497  0.1740489840169767  1.0000
  C   C279      1.0  0.5248733952235696  0.6514005521433907  0.18636225178417706  1.0000
  C   C280      1.0  0.5196138949104389  0.6557635063411662  0.23049927806897458  1.0000
  C   C281      1.0  0.5330474547399084  0.6461047338146364  0.2652923434971836  1.0000
  C   C282      1.0  0.5503746274041538  0.6308468090217079  0.25414617451338617  1.0000
  C   C283      1.0  0.5559026089681669  0.6267771997641034  0.20878331890371551  1.0000
  C   C284      1.0  0.5386599874031675  0.664920333542916  0.05763958751677033  1.0000
  C   C285      1.0  0.5238589362716296  0.6695136643375059  0.021860203086772945  1.0000
  C   C286      1.0  0.5052565695852057  0.655235053960016  0.011418459143981874  1.0000
  C   C287      1.0  0.5009521400389  0.6372634299080296  0.041041721875333816  1.0000
  C   C288      1.0  0.514158599307297  0.633896852876518  0.0801589941476078  1.0000
  C   C289      1.0  0.5346556587454812  0.6464481767299692  0.08665145063316138  1.0000
  C   C290      1.0  0.4922856776902304  0.6545659015696244  0.9628735691391881  1.0000
  C   C291      1.0  0.5023732343468162  0.7071499482529462  0.8553557034522674  1.0000
  C   C292      1.0  0.5209523701362585  0.6979754866315376  0.8794283963223382  1.0000
  C   C293      1.0  0.5177167275123806  0.6820577267480091  0.9144140432935078  1.0000
  C   C294      1.0  0.49545991742206213  0.6757009235710331  0.9273484206824196  1.0000
  C   C295      1.0  0.47658885353791497  0.6859449654749407  0.9036103553160746  1.0000
  C   C296      1.0  0.4804577339132416  0.7007036560684056  0.8674500975155001  1.0000
  C   C297      1.0  0.46538992426154785  0.6547315279684255  0.9783859441333345  1.0000
  C   C298      1.0  0.4502548703013634  0.6363363815931242  0.9729328816491496  1.0000
  C   C299      1.0  0.42746935647853107  0.6379845122328417  0.986816508487406  1.0000
  C   C300      1.0  0.4192271649529601  0.6583992273876582  0.006764405189101597  1.0000
  C   C301      1.0  0.4350060186198383  0.6756782981056906  0.014727173951230021  1.0000
  C   C302      1.0  0.45700704751234444  0.6742303017339166  0.0006625750956523735  1.0000
  C   C303      1.0  0.4893595321832844  0.6243963974475287  0.8966207379678427  1.0000
  C   C304      1.0  0.4977312831401766  0.6064518872296037  0.8709773445700792  1.0000
  C   C305      1.0  0.5198691336884612  0.5979297109673903  0.8787625558812512  1.0000
  C   C306      1.0  0.533011391377084  0.6072432120087569  0.9133008946586648  1.0000
  C   C307      1.0  0.5238072325161387  0.6238106723101353  0.9417783781390039  1.0000
  C   C308      1.0  0.5017764794292086  0.6330118172968686  0.9336960995541164  1.0000
  H   H173      1.0  0.6004002867643857  0.6231467610111239  0.1222995234790535  1.0000
  H   H174      1.0  0.5587076472184385  0.6827797327663198  0.14690147413562946  1.0000
  H   H175      1.0  0.5924301010053484  0.7056130238878882  0.15756038449920576  1.0000
  H   H176      1.0  0.6352061805684092  0.6458594443945641  0.13458991365161138  1.0000
  H   H177      1.0  0.5159479858039673  0.6620597175360405  0.16123514082073348  1.0000
  H   H178      1.0  0.5058356779537514  0.667765827684849  0.2386573600271552  1.0000
  H   H179      1.0  0.5608647807482734  0.6241476758177636  0.2811325168623267  1.0000
  H   H180      1.0  0.5716439152972176  0.6165629379949261  0.2021631576361278  1.0000
  H   H181      1.0  0.5536418355995508  0.6761952435107956  0.06212905937287942  1.0000
  H   H182      1.0  0.5276757475857019  0.6843571156791664  0.0002664853973646242  1.0000
  H   H183      1.0  0.48733104963501006  0.6248792311415151  0.03446902308021335  1.0000
  H   H184      1.0  0.5100918334380985  0.6196197114369366  0.10213548472648196  1.0000
  H   H185      1.0  0.5385871995646052  0.7019982118890802  0.8725480450977718  1.0000
  H   H186      1.0  0.5324807604282793  0.6741900109703498  0.9304795780387111  1.0000
  H   H187      1.0  0.4583801911439601  0.6824921418654843  0.9110097206280524  1.0000
  H   H188      1.0  0.4664342307408011  0.7091004690046033  0.8509645711074574  1.0000
  H   H189      1.0  0.4550570177775835  0.6203411905382167  0.9566795457538961  1.0000
  H   H190      1.0  0.4162510875501891  0.6236222386231073  0.9806566307657595  1.0000
  H   H191      1.0  0.4293657157309761  0.6910756801507021  0.032592185170550625  1.0000
  H   H192      1.0  0.4683570598589417  0.6892329984663145  0.006235147402596564  1.0000
  H   H193      1.0  0.4728685931957791  0.6319258630341977  0.8866194730860786  1.0000
  H   H194      1.0  0.48705611936092064  0.5995545657143722  0.8438008108746333  1.0000
  H   H195      1.0  0.5501418254751458  0.6002419004378975  0.9195154054421442  1.0000
  H   H196      1.0  0.5355383702655526  0.631010660837203  0.9663154520346535  1.0000
  C   C309      1.0  0.5400120594127746  0.3251568440173794  0.12476449893762147  1.0000
  C   C310      1.0  0.5172095464257607  0.31939307314559884  0.1191769025386734  1.0000
  C   C311      1.0  0.5001837787573024  0.336587375057747  0.12129905553424063  1.0000
  C   C312      1.0  0.5062127313603638  0.35969147004297125  0.13085642678861342  1.0000
  C   C313      1.0  0.52943962901583  0.36488790945287214  0.13259614835135117  1.0000
  C   C314      1.0  0.5462337263108803  0.34812430725601035  0.12896236682619808  1.0000
  H   H197      1.0  0.5120242940413042  0.3015916764864727  0.1135735991344484  1.0000
  H   H198      1.0  0.48247002225051555  0.3313873194772666  0.11502444838274528  1.0000
  H   H199      1.0  0.5346853470787876  0.38243068331612134  0.13928869842586733  1.0000
  H   H200      1.0  0.563957146688872  0.3524489899494169  0.1338407577912293  1.0000
  C   C315      1.0  0.501580924015732  0.37158040531876885  0.22614263284444647  1.0000
  C   C316      1.0  0.49328803124292364  0.38751799232797474  0.19418126730235793  1.0000
  C   C317      1.0  0.48820916614563553  0.4096760820118345  0.2098616389616401  1.0000
  C   C318      1.0  0.49453187831168693  0.4165831900601984  0.25367906183471584  1.0000
  C   C319      1.0  0.5051258673482644  0.4004918269279435  0.28280497146768285  1.0000
  C   C320      1.0  0.5080064848429059  0.3777923241980436  0.269571819521873  1.0000
  C   C321      1.0  0.48846667435285673  0.38006586743680254  0.14173967416234065  1.0000
  C   C322      1.0  0.46097795263979313  0.37613353637166846  0.14404314063186544  1.0000
  C   C323      1.0  0.4459391618862479  0.39318340407898816  0.12883705224061912  1.0000
  C   C324      1.0  0.4224617360346305  0.3924038747050871  0.13624973436141866  1.0000
  C   C325      1.0  0.41305009175206403  0.3729763587129444  0.1552862833004161  1.0000
  C   C326      1.0  0.42727153236855775  0.355735896321882  0.17171649373335326  1.0000
  C   C327      1.0  0.4509011571186351  0.3579402775448663  0.16681590808695243  1.0000
  C   C328      1.0  0.5062620993217258  0.41810092645176783  0.10404081275790034  1.0000
  C   C329      1.0  0.5124871845378132  0.43079313963800825  0.06663184803781026  1.0000
  C   C330      1.0  0.5037887160084633  0.42521991923051766  0.02291188952705414  1.0000
  C   C331      1.0  0.4924760230956256  0.40395406856848987  0.018858799252334357  1.0000
  C   C332      1.0  0.48804915224924306  0.39035642813285754  0.05621844499584501  1.0000
  C   C333      1.0  0.4940672183500514  0.3975320084176443  0.10037834887528502  1.0000
  C   C334      1.0  0.5098800095616749  0.44154333965083226  0.9790381263089633  1.0000
  C   C335      1.0  0.526217060952275  0.5155819359626456  0.009564349608031764  1.0000
  C   C336      1.0  0.5342665837497773  0.5053066681715763  0.9701192789647611  1.0000
  C   C337      1.0  0.5286207792909827  0.48274093628618536  0.9608419021522814  1.0000
  C   C338      1.0  0.5151401461509678  0.46890400761364204  0.9888686628725  1.0000
  C   C339      1.0  0.5063581186131623  0.48047585280475485  0.02721082858002144  1.0000
  C   C340      1.0  0.5116809852268909  0.5032916829063538  0.03753735241539712  1.0000
  C   C341      1.0  0.4856105536573792  0.44128768805182156  0.9510933151814938  1.0000
  C   C342      1.0  0.4818130789506681  0.42561690649401823  0.9157866989720566  1.0000
  C   C343      1.0  0.45974528824101113  0.4209196506807723  0.9001377413233281  1.0000
  C   C344      1.0  0.4411503324093196  0.432818761178488  0.9164559539795082  1.0000
  C   C345      1.0  0.44487129333005515  0.44934245603978024  0.949017258831848  1.0000
  C   C346      1.0  0.46604940727648675  0.4525153405993927  0.9683915083842993  1.0000
  C   C347      1.0  0.5366097065968027  0.4344723782707907  0.9088278127211056  1.0000
  C   C348      1.0  0.5574773674925486  0.4288341165271588  0.8902833027952397  1.0000
  C   C349      1.0  0.5742654589672546  0.4176203792578294  0.9166437551295583  1.0000
  C   C350      1.0  0.5702173933296466  0.413650735258782  0.9616989583097831  1.0000
  C   C351      1.0  0.550206636036265  0.42100823095227663  0.9806463870666658  1.0000
  C   C352      1.0  0.5324670958142229  0.4310572505626158  0.9547639740233841  1.0000
  H   H201      1.0  0.5039499258346799  0.3537612713348462  0.2179517710491662  1.0000
  H   H202      1.0  0.47958083433937215  0.42171343809974654  0.18769905451589802  1.0000
  H   H203      1.0  0.4908769003600588  0.4341811571391629  0.264066855628947  1.0000
  H   H204      1.0  0.5151458566412861  0.3647132643812517  0.2914144590992568  1.0000
  H   H205      1.0  0.4528335016985688  0.40927896508585937  0.11371154761557617  1.0000
  H   H206      1.0  0.4109660129594305  0.4057044173437503  0.12352637717383598  1.0000
  H   H207      1.0  0.4215161869411552  0.33968273459767584  0.18759695898159798  1.0000
  H   H208      1.0  0.4616713976275098  0.3448484157073416  0.1813401075751983  1.0000
  H   H209      1.0  0.513074607728026  0.42261550268328396  0.13739190681036031  1.0000
  H   H210      1.0  0.5247094304922423  0.44416926985080046  0.07225939486322357  1.0000
  H   H211      1.0  0.48705050831288316  0.3969052342551674  0.9851331272696833  1.0000
  H   H212      1.0  0.47869153777955054  0.3745165095793513  0.04904512397720035  1.0000
  H   H213      1.0  0.5456004684883318  0.5145645048302604  0.9479553286924732  1.0000
  H   H214      1.0  0.5355049283955017  0.47717345928334565  0.9284171799545236  1.0000
  H   H215      1.0  0.49512613630983526  0.4719968169445448  0.05169312019290814  1.0000
  H   H216      1.0  0.504703576045353  0.5118772990743917  0.06781328799994422  1.0000
  H   H217      1.0  0.49589528680053696  0.41419293161948034  0.9034498706969408  1.0000
  H   H218      1.0  0.45788061695966653  0.4082197364773205  0.8732890059988789  1.0000
  H   H219      1.0  0.4299000238847581  0.4582985742945935  0.9612584792487564  1.0000
  H   H220      1.0  0.4665751044740528  0.4630982110190247  0.9982826223395618  1.0000
  H   H221      1.0  0.5241892482326096  0.4435733700324144  0.8887160168339117  1.0000
  H   H222      1.0  0.5606202925408316  0.4337845312542357  0.8543108461447154  1.0000
  H   H223      1.0  0.5835400741799422  0.4056029456437194  0.9834463314855961  1.0000
  H   H224      1.0  0.548381217537651  0.4182625132139595  0.016482261062608083  1.0000
  C   C353      1.0  0.28116791513332773  0.8468659968617139  0.7395677580304089  1.0000
  C   C354      1.0  0.27175607092728954  0.829270011930901  0.764425801164326  1.0000
  C   C355      1.0  0.24936403094659093  0.8315892840488993  0.7813005881379275  1.0000
  C   C356      1.0  0.23694239696222216  0.8525859876098137  0.7776128564642144  1.0000
  C   C357      1.0  0.2467458154621862  0.8695756415432516  0.7502314487868956  1.0000
  C   C358      1.0  0.268442985859244  0.8666323696776379  0.7305157425979895  1.0000
  H   H225      1.0  0.28134541404679525  0.812915810087199  0.7696978916311897  1.0000
  H   H226      1.0  0.24121723902448142  0.8172552370152597  0.7974344142104217  1.0000
  H   H227      1.0  0.23767146965956856  0.8859909164916318  0.7429242767667606  1.0000
  H   H228      1.0  0.27536878521381786  0.8800022385962445  0.708635201333959  1.0000
  C   C359      1.0  0.22037313126878263  0.8974472851390528  0.8308288732557115  1.0000
  C   C360      1.0  0.20424136240268673  0.8806582628822559  0.8171569495320571  1.0000
  C   C361      1.0  0.18114566514971361  0.8864220795780908  0.8184339973523985  1.0000
  C   C362      1.0  0.1737854499193894  0.9082113141055898  0.8301903493455408  1.0000
  C   C363      1.0  0.18967868217393147  0.9253016882545855  0.8395735777153217  1.0000
  C   C364      1.0  0.21288355369612255  0.9196601815604253  0.8409837936238804  1.0000
  C   C365      1.0  0.21233790855143345  0.8555000053689454  0.799954364187459  1.0000
  C   C366      1.0  0.21122484086163734  0.8420550444377557  0.8477856098220621  1.0000
  C   C367      1.0  0.19203938884565858  0.829344637169896  0.8601941439908334  1.0000
  C   C368      1.0  0.19153542335572066  0.8163879467017577  0.90008652282786  1.0000
  C   C369      1.0  0.21022544632495532  0.8165954801282687  0.9288405861837277  1.0000
  C   C370      1.0  0.22937241239841327  0.8302379132807927  0.9189861476556389  1.0000
  C   C371      1.0  0.22957780810166611  0.8432456587900532  0.8797835112242512  1.0000
  C   C372      1.0  0.18783235263427123  0.8607001920495265  0.7255851087675805  1.0000
  C   C373      1.0  0.17446146617897343  0.8525628507629425  0.689629724948879  1.0000
  C   C374      1.0  0.17052733149224497  0.8285809662308216  0.6843815364465671  1.0000
  C   C375      1.0  0.1801842209504611  0.8139691112646317  0.7168574771397931  1.0000
  C   C376      1.0  0.19311219900938623  0.8219951510924256  0.7530109058076386  1.0000
  C   C377      1.0  0.19739475332796066  0.8455174726074909  0.7585186013536562  1.0000
  C   C378      1.0  0.15390367311613323  0.8175906063699664  0.6457969365271627  1.0000
  C   C379      1.0  0.08602606268841431  0.8043285170793318  0.7001909787144293  1.0000
  C   C380      1.0  0.09510172475226669  0.8259276033539888  0.7049952735893497  1.0000
  C   C381      1.0  0.1176450991011314  0.8293231823385402  0.6935120869053713  1.0000
  C   C382      1.0  0.13148694600813543  0.8114023991341934  0.6757836583406326  1.0000
  C   C383      1.0  0.12269532802073778  0.7895441214187469  0.6779075186193821  1.0000
  C   C384      1.0  0.10055691616863509  0.7857361194737352  0.6919823611740532  1.0000
  C   C385      1.0  0.16336822328091802  0.7953456130017565  0.6172306743213454  1.0000
  C   C386      1.0  0.18574309020557156  0.7865798813568525  0.6209764536232557  1.0000
  C   C387      1.0  0.19396980670681976  0.7690600312571553  0.5927994519829969  1.0000
  C   C388      1.0  0.18002241479366116  0.759953924759129  0.5584489143556334  1.0000
  C   C389      1.0  0.15836324555029205  0.7697222697361595  0.5518656304047828  1.0000
  C   C390      1.0  0.149998639756023  0.7865313222706255  0.5819206435455436  1.0000
  C   C391      1.0  0.12607305229542592  0.8387553049179923  0.5863356778549056  1.0000
  C   C392      1.0  0.122395669606737  0.8460883094964304  0.5418097324611858  1.0000
  C   C393      1.0  0.1410448140522003  0.8508208110420729  0.5142985712620141  1.0000
  C   C394      1.0  0.16310598071465213  0.8498462986131329  0.5327201567987563  1.0000
  C   C395      1.0  0.1666719242906876  0.8425335718670146  0.5764675810613588  1.0000
  C   C396      1.0  0.1483425923196379  0.8354708344957863  0.6039309383314269  1.0000
  H   H229      1.0  0.2386283923766361  0.892851547729968  0.83110545313124  1.0000
  H   H230      1.0  0.16841451703354393  0.874009380229144  0.8088800406643901  1.0000
  H   H231      1.0  0.15578148343418882  0.9128021862677184  0.8303644922301329  1.0000
  H   H232      1.0  0.22535536710039722  0.9327862232578682  0.8496670358889287  1.0000
  H   H233      1.0  0.1766878769978613  0.8295402850659791  0.8390989529906494  1.0000
  H   H234      1.0  0.1761683125137719  0.8067263047724296  0.907257112193413  1.0000
  H   H235      1.0  0.2438829543920424  0.8313209610296188  0.9427617732519941  1.0000
  H   H236      1.0  0.2444543307592517  0.8538239483665322  0.8733538827598055  1.0000
  H   H237      1.0  0.19128980345136884  0.8789725410392712  0.727739700143611  1.0000
  H   H238      1.0  0.16615597301325355  0.8651021759576126  0.6679711304985443  1.0000
  H   H239      1.0  0.1775364737697329  0.795633471124742  0.7161404182032378  1.0000
  H   H240      1.0  0.19950542725797366  0.8087456235802608  0.7751099793189999  1.0000
  H   H241      1.0  0.08500107273888638  0.8409249686127427  0.7148019081883347  1.0000
  H   H242      1.0  0.12393153391095922  0.8470086504274745  0.6913267644320599  1.0000
  H   H243      1.0  0.1323802245482067  0.7744347032042673  0.6673565085529255  1.0000
  H   H244      1.0  0.09349667506918996  0.76850297381149  0.6891960750205813  1.0000
  H   H245      1.0  0.19738723523233714  0.7944899877941504  0.6449671969005774  1.0000
  H   H246      1.0  0.21177805653598059  0.7635978048105868  0.5962686514093787  1.0000
  H   H247      1.0  0.1479387303885791  0.7639807566273861  0.5239583795073234  1.0000
  H   H248      1.0  0.13275746946342856  0.7929861483826497  0.5761602700885493  1.0000
  H   H249      1.0  0.11151579853319686  0.8323086428540329  0.6045182437461293  1.0000
  H   H250      1.0  0.10553416673221652  0.8466444401950753  0.5272431923500196  1.0000
  H   H251      1.0  0.17798800184558172  0.8533186269773602  0.5126527502743015  1.0000
  H   H252      1.0  0.18426548785816235  0.839864367450702  0.5881351543290229  1.0000
  C   C397      1.0  0.4814623004151755  0.7691541595317948  0.9161383993076051  1.0000
  C   C398      1.0  0.4712857557214236  0.7492092720027083  0.9306434772242095  1.0000
  C   C399      1.0  0.448166040585129  0.745924250926944  0.9235241063541247  1.0000
  C   C400      1.0  0.43382600172795427  0.7634813993381164  0.9045630193317837  1.0000
  C   C401      1.0  0.44558176117541864  0.7816379785081703  0.8838400160653356  1.0000
  C   C402      1.0  0.46889033991211376  0.7849403742701566  0.8909081684399521  1.0000
  H   H253      1.0  0.481260713959025  0.7365549270327253  0.9500211413430254  1.0000
  H   H254      1.0  0.4412852938847824  0.7297165005916979  0.9355502090900665  1.0000
  H   H255      1.0  0.43559027547522133  0.7955140379858852  0.8677574084883095  1.0000
  H   H256      1.0  0.47756924084631885  0.8008534683171543  0.8806473965144822  1.0000
  C   C403      1.0  0.4100323537328753  0.8016327687611342  0.9581239073261002  1.0000
  C   C404      1.0  0.3957183687317499  0.7856379993191299  0.9358472763637822  1.0000
  C   C405      1.0  0.3721149925439378  0.787399834191104  0.9438100451259106  1.0000
  C   C406      1.0  0.3636090922016714  0.8023557584665357  0.9759035543863073  1.0000
  C   C407      1.0  0.3785834073746046  0.8162204573506076  0.00017429210552188934  1.0000
  C   C408      1.0  0.40136739743151767  0.8173603523756515  0.9882233098296003  1.0000
  C   C409      1.0  0.40582762747482487  0.763575023252896  0.9084044064919015  1.0000
  C   C410      1.0  0.3977753546546796  0.7412911422960989  0.9380872318989264  1.0000
  C   C411      1.0  0.38390852237931683  0.72307968690715  0.9227524143557366  1.0000
  C   C412      1.0  0.3789784267202617  0.7045404321360489  0.9506118613240924  1.0000
  C   C413      1.0  0.3861932112010618  0.7046298631568727  0.9950592716914274  1.0000
  C   C414      1.0  0.39828142193836547  0.7230425718907233  0.011616503993125749  1.0000
  C   C415      1.0  0.4047953546160046  0.7405957020523057  0.9832482866364523  1.0000
  C   C416      1.0  0.3885452583647209  0.7825669525014448  0.8323346970224776  1.0000
  C   C417      1.0  0.38555029340966773  0.7812111909657833  0.7854253843063027  1.0000
  C   C418      1.0  0.39109830116899996  0.7613774335404435  0.7602053971377434  1.0000
  C   C419      1.0  0.39917012446196487  0.7421944991599586  0.784568328148801  1.0000
  C   C420      1.0  0.4039653321120684  0.7437740333748986  0.8303644922301329  1.0000
  C   C421      1.0  0.39776068459855013  0.763557440968197  0.8557791096814714  1.0000
  C   C422      1.0  0.38781849058091666  0.7620672011118814  0.7057464781895506  1.0000
  C   C423      1.0  0.32831122945487445  0.8094013172196707  0.6822884072650985  1.0000
  C   C424      1.0  0.3485811479599208  0.8129561336088146  0.6586493643233254  1.0000
  C   C425      1.0  0.3667688093371097  0.7976517886208037  0.6635458524900888  1.0000
  C   C426      1.0  0.3655438935505913  0.7781220123174044  0.6919345572449496  1.0000
  C   C427      1.0  0.3451093830925458  0.7754950389437848  0.7172501522717163  1.0000
  C   C428      1.0  0.32660431365623527  0.7905576392210691  0.7105849187281166  1.0000
  C   C429      1.0  0.38524574751718066  0.7357328018547488  0.6877995173774807  1.0000
  C   C430      1.0  0.40462019482425476  0.7212976607526661  0.6819879254250182  1.0000
  C   C431      1.0  0.4029200531439236  0.6985989244951842  0.6697159739108288  1.0000
  C   C432      1.0  0.3815941007592966  0.6892003875190085  0.6595781263744828  1.0000
  C   C433      1.0  0.36166154467893497  0.702909127873447  0.6673565085529255  1.0000
  C   C434      1.0  0.36382840921920945  0.7257696243343601  0.6793723675897736  1.0000
  C   C435      1.0  0.41347630767324445  0.7734777319374698  0.6357034783535558  1.0000
  C   C436      1.0  0.4297318883066122  0.7862362776881855  0.6137751331604218  1.0000
  C   C437      1.0  0.4450142683595412  0.7990116167325803  0.6391146301517403  1.0000
  C   C438      1.0  0.4436907927461935  0.7999576395799358  0.6854298083204836  1.0000
  C   C439      1.0  0.4265920209418345  0.7874565141896192  0.7069449909835073  1.0000
  C   C440      1.0  0.41041876003818806  0.7739543224102933  0.6830054662016538  1.0000
  H   H257      1.0  0.42836339932507034  0.8014068249495693  0.9543303240950862  1.0000
  H   H258      1.0  0.36005046587000294  0.7752616609554205  0.9290864349619751  1.0000
  H   H259      1.0  0.34586870555061616  0.8019452762478331  0.9852970264551816  1.0000
  H   H260      1.0  0.41216216294595437  0.82972954432661  0.006552702074499539  1.0000
  H   H261      1.0  0.37648415250759476  0.7223908728874631  0.8888628431875872  1.0000
  H   H262      1.0  0.36882534788991406  0.6901339521921075  0.9370628619895618  1.0000
  H   H263      1.0  0.40271307925120065  0.7237766267426607  0.04736515732584222  1.0000
  H   H264      1.0  0.4162779447206018  0.7531371106434637  0.9991465076297926  1.0000
  H   H265      1.0  0.38460996446077206  0.7986083469645934  0.8497455709153132  1.0000
  H   H266      1.0  0.37972894186710987  0.7973966203087275  0.769431555454755  1.0000
  H   H267      1.0  0.4038596344569985  0.7257241609652879  0.7686871799872833  1.0000
  H   H268      1.0  0.4125625769557024  0.7290162035947813  0.8457641865342491  1.0000
  H   H269      1.0  0.35146430139336476  0.8289332851676187  0.6391760923463021  1.0000
  H   H270      1.0  0.38171100351293974  0.8027480093472789  0.6444379391140722  1.0000
  H   H271      1.0  0.3431356832935911  0.7611517465007188  0.7414457695309109  1.0000
  H   H272      1.0  0.31125769953698995  0.7873711950820519  0.7309903673226618  1.0000
  H   H273      1.0  0.42217192010842053  0.7278002219671158  0.6880419515893638  1.0000
  H   H274      1.0  0.4181766175721367  0.6885113663830825  0.6647409507176809  1.0000
  H   H275      1.0  0.344987048970492  0.6947093150236342  0.6622585609706537  1.0000
  H   H276      1.0  0.3476178274710184  0.7352034810019624  0.6813869617448576  1.0000
  H   H277      1.0  0.40256414223563736  0.7638000674926155  0.6140448839032211  1.0000
  H   H278      1.0  0.4308008856784605  0.7867626363005699  0.5771607380333622  1.0000
  H   H279      1.0  0.45630064660346703  0.8096770457880182  0.7048347889702159  1.0000
  H   H280      1.0  0.42610917861310893  0.7892104772211762  0.7443481509407776  1.0000
  C   C441      1.0  0.07049434692880947  0.026600104488071263  0.05457877022758855  1.0000
  C   C442      1.0  0.05320889707531495  0.015767629649725556  0.030809781528255975  1.0000
  C   C443      1.0  0.057404406401002424  0.9953517327932063  0.009379963024346072  1.0000
  C   C444      1.0  0.07917496186360548  0.9853618916121296  0.00901118985697491  1.0000
  C   C445      1.0  0.09657320747679905  0.9961287382883616  0.03374630860176819  1.0000
  C   C446      1.0  0.09236298690584724  0.01672600081633746  0.057391007085431156  1.0000
  H   H281      1.0  0.03662460181790217  0.02403921771965911  0.02763764937558988  1.0000
  H   H282      1.0  0.043577604789664125  0.9866301094415635  0.9919998202287914  1.0000
  H   H283      1.0  0.1140486520343492  0.9887899190081637  0.03385216015906911  1.0000
  H   H284      1.0  0.10630169635616947  0.02527996291839174  0.07636302072013862  1.0000
  C   C447      1.0  0.12140851758347655  0.9797240904084364  0.9408120558578366  1.0000
  C   C448      1.0  0.10895581709077859  0.9604155694311074  0.9561946773301301  1.0000
  C   C449      1.0  0.11794084809570031  0.9388580594532896  0.9445612497261114  1.0000
  C   C450      1.0  0.13889871737215406  0.9366882113108709  0.9250640757845363  1.0000
  C   C451      1.0  0.15212282554978943  0.955370796417225  0.9153325616455715  1.0000
  C   C452      1.0  0.14276358830566666  0.9772256894717406  0.9198841786095154  1.0000
  C   C453      1.0  0.08432068359880115  0.9622813994201329  0.9810049165349435  1.0000
  C   C454      1.0  0.06871383171752032  0.9599716872878413  0.9368067695122205  1.0000
  C   C455      1.0  0.059349926759854676  0.9390206859156984  0.9235514228850411  1.0000
  C   C456      1.0  0.04427809790745746  0.9369660278156788  0.8868926383952425  1.0000
  C   C457      1.0  0.03943212889533537  0.9563464999473579  0.8612765615283955  1.0000
  C   C458      1.0  0.04917180243982595  0.9776690772741182  0.8731319359461097  1.0000
  C   C459      1.0  0.06377424338321667  0.9791734155664802  0.9098043787013665  1.0000
  C   C460      1.0  0.09594704069261409  0.9337830064941396  0.044539603659177876  1.0000
  C   C461      1.0  0.09115120492514903  0.91895693259151  0.07918959875671232  1.0000
  C   C462      1.0  0.06850695744861736  0.9140359490854203  0.09091829276230186  1.0000
  C   C463      1.0  0.05080097886317423  0.9235430092211334  0.06461383931636178  1.0000
  C   C464      1.0  0.05517452046778828  0.9386024596661887  0.03024979264447003  1.0000
  C   C465      1.0  0.07813647271314103  0.9439771070491473  0.019599760153441448  1.0000
  C   C466      1.0  0.062403877824822825  0.8985721140755739  0.13386192810268951  1.0000
  C   C467      1.0  0.04921898128640897  0.8275172768106077  0.09956841373361398  1.0000
  C   C468      1.0  0.07093026311927944  0.8364619454772781  0.09089917119066039  1.0000
  C   C469      1.0  0.07425007533367656  0.8604086374030571  0.0935099486329946  1.0000
  C   C470      1.0  0.05639762673789721  0.8748547771247461  0.10874642666488539  1.0000
  C   C471      1.0  0.03390146450580689  0.8659884085212662  0.10859208826520778  1.0000
  C   C472      1.0  0.030473124129219986  0.8423569700618718  0.1060219441626117  1.0000
  C   C473      1.0  0.04285757694996577  0.9092072623525371  0.16597626621790984  1.0000
  C   C474      1.0  0.03671647526288924  0.9323618366650398  0.16676537250475712  1.0000
  C   C475      1.0  0.019877446222995143  0.9401103922026163  0.19564270170638495  1.0000
  C   C476      1.0  0.009758485727938693  0.925326102851791  0.22590873504847486  1.0000
  C   C477      1.0  0.017547510367553087  0.9026974806849957  0.22949163953479615  1.0000
  C   C478      1.0  0.03332391278285263  0.8947904681119883  0.19846074332704725  1.0000
  C   C479      1.0  0.08950130780114048  0.875659005696756  0.1912761542393996  1.0000
  C   C480      1.0  0.10331436851448719  0.8748445278918606  0.22911774451787803  1.0000
  C   C481      1.0  0.11051555726360558  0.8944658766696868  0.2500459632228357  1.0000
  C   C482      1.0  0.10513245912225663  0.9154843739047912  0.23000860488238892  1.0000
  C   C483      1.0  0.09287923043005031  0.9170458248982317  0.18979115932745722  1.0000
  C   C484      1.0  0.08321045827972412  0.896778126357124  0.17075392747518686  1.0000
  H   H285      1.0  0.11485741820923497  0.9971752198433993  0.9461456085192622  1.0000
  H   H286      1.0  0.10831454614008301  0.9234000732727091  0.9533435144157315  1.0000
  H   H287      1.0  0.14606243240205538  0.9196350337196636  0.9230153359658069  1.0000
  H   H288      1.0  0.15297229518274877  0.9920070709565327  0.9099955944177814  1.0000
  H   H289      1.0  0.06334641376893968  0.9229166613407265  0.9411671707597498  1.0000
  H   H290      1.0  0.03772395936676198  0.9196897976189998  0.8781240319710805  1.0000
  H   H291      1.0  0.04524632887845962  0.9923506295487836  0.8516201678494507  1.0000
  H   H292      1.0  0.07190401296573748  0.9953813713831074  0.917692027003475  1.0000
  H   H293      1.0  0.11415733538022137  0.9375799016730211  0.03837631137116682  1.0000
  H   H294      1.0  0.10569428777420135  0.9112442152489268  0.09743943160531765  1.0000
  H   H295      1.0  0.03240476571745843  0.919904432799063  0.07057328199240923  1.0000
  H   H296      1.0  0.040091953040919025  0.9455788614730225  0.012453072752440342  1.0000
  H   H297      1.0  0.08644462029311986  0.8257249942712067  0.08618263067130878  1.0000
  H   H298      1.0  0.09228686575925472  0.8664181647915484  0.09060927450631018  1.0000
  H   H299      1.0  0.019534158621536957  0.8774516702690429  0.11559672970544371  1.0000
  H   H300      1.0  0.012908266265318824  0.8352713471180454  0.10696948632877407  1.0000
  H   H301      1.0  0.04531214120141429  0.9451249116269614  0.14614890370888284  1.0000
  H   H302      1.0  0.014213912489615455  0.9577677522986577  0.1931524584567193  1.0000
  H   H303      1.0  0.010555135352354306  0.8909917008454994  0.254692505131714  1.0000
  H   H304      1.0  0.03888822464273993  0.8769872823615117  0.20153385305514143  1.0000
  H   H305      1.0  0.08331255259226115  0.858991080659459  0.1809546030326407  1.0000
  H   H306      1.0  0.10642088378847411  0.8580882746430141  0.24562000230110717  1.0000
  H   H307      1.0  0.11154470933690305  0.9312047206301266  0.24666451815202273  1.0000
  H   H308      1.0  0.08978586003801856  0.9342774242842353  0.17535027525850636  1.0000
  C   C485      1.0  0.014150187412282023  0.24513875410026167  0.9275976840270317  1.0000
  C   C486      1.0  0.9908923007079243  0.2406821247676225  0.9254191906864494  1.0000
  C   C487      1.0  0.9831356310695417  0.21798422860931915  0.9229368009394222  1.0000
  C   C488      1.0  0.9985835847909101  0.19928233519468566  0.9237426386014559  1.0000
  C   C489      1.0  0.02187031982730958  0.20426661189764092  0.9324190517337749  1.0000
  C   C490      1.0  0.0291702719478959  0.2268927694830696  0.9344814498179627  1.0000
  H   H309      1.0  0.9789679783917472  0.2549038451114806  0.927853776504373  1.0000
  H   H310      1.0  0.964691450737377  0.21564740566896323  0.9189963913547327  1.0000
  H   H311      1.0  0.03486889822013928  0.19033780398979064  0.9347682733925848  1.0000
  H   H312      1.0  0.04783866745870115  0.22917390734618034  0.9406618149377964  1.0000
  C   C491      1.0  0.018126498506791267  0.16839879293410934  0.8487519321032295  1.0000
  C   C492      1.0  0.005245476691560169  0.15800334736622276  0.883549777924349  1.0000
  C   C493      1.0  0.004840770496413294  0.13395694935369945  0.884321469922737  1.0000
  C   C494      1.0  0.017693382997861162  0.12104887455202662  0.8543586500738191  1.0000
  C   C495      1.0  0.030295592844185704  0.13141715241990864  0.8206534654893552  1.0000
  C   C496      1.0  0.03059473452697814  0.15529831738532468  0.8188403307497797  1.0000
  C   C497      1.0  0.9910643312507083  0.1730601013755311  0.9197851561849435  1.0000
  C   C498      1.0  0.9652779893676743  0.16946999761882567  0.8998270157841542  1.0000
  C   C499      1.0  0.9496489026031164  0.1536755703500227  0.9193446771239167  1.0000
  C   C500      1.0  0.9278442694198593  0.15175189693438726  0.9014933241700541  1.0000
  C   C501      1.0  0.9212997477189285  0.1636363136306823  0.8622565420750211  1.0000
  C   C502      1.0  0.936673898414477  0.1783185386503974  0.8420252363650679  1.0000
  C   C503      1.0  0.9585361527743776  0.18082852494333493  0.8600097574071477  1.0000
  C   C504      1.0  0.013935030552179706  0.15258645990276004  0.9864648081518574  1.0000
  C   C505      1.0  0.017264055705055625  0.1468022762636902  0.031224946014246226  1.0000
  C   C506      1.0  0.0010993865212680642  0.15316161030745104  0.06361576156800408  1.0000
  C   C507      1.0  0.9822053090928106  0.16576714101012932  0.04897922284636456  1.0000
  C   C508      1.0  0.9788763267370065  0.171448783544304  0.003827878115589378  1.0000
  C   C509      1.0  0.9945424053387976  0.16508555020450735  0.9713519374223633  1.0000
  C   C510      1.0  0.0050500091090042165  0.14542942320287883  0.1164175914594813  1.0000
  C   C511      1.0  0.03384631156754403  0.07380975387630828  0.11569950815301663  1.0000
  C   C512      1.0  0.04036736481630776  0.08908912500221622  0.1493725958136536  1.0000
  C   C513      1.0  0.03003983070626437  0.11063772544933842  0.15223536825369152  1.0000
  C   C514      1.0  0.014891472042868559  0.11888336390044013  0.11914173250511853  1.0000
  C   C515      1.0  0.007535435672531676  0.10248933243453114  0.08691403078659518  1.0000
  C   C516      1.0  0.017196816139066096  0.08072696878570414  0.08439442226619444  1.0000
  C   C517      1.0  0.9803776594655442  0.14603053571500493  0.14144397271517067  1.0000
  C   C518      1.0  0.9726164655905298  0.16687715348242557  0.16073354102178122  1.0000
  C   C519      1.0  0.9508464833573484  0.16891930877104588  0.18018427686079844  1.0000
  C   C520      1.0  0.9365038623814682  0.1497412642320416  0.18163205299936724  1.0000
  C   C521      1.0  0.9441251172864791  0.1290961031836113  0.16491194588207989  1.0000
  C   C522      1.0  0.965765401075196  0.12700278813036636  0.14485853907971974  1.0000
  C   C523      1.0  0.02541871025857856  0.16325490515256375  0.18585894470204253  1.0000
  C   C524      1.0  0.04394479869931844  0.1733031517890598  0.2072737391139484  1.0000
  C   C525      1.0  0.06204291839653593  0.18217280333349153  0.18271617782011157  1.0000
  C   C526      1.0  0.06021969273609537  0.1829228953058623  0.1362032962588608  1.0000
  C   C527      1.0  0.042002246038166414  0.17269876452441002  0.11458601806153718  1.0000
  C   C528      1.0  0.02439294571679418  0.16185814993405495  0.1384285691586374  1.0000
  H   H313      1.0  0.0177518184391805  0.18698603038189313  0.8439373935292154  1.0000
  H   H314      1.0  0.9956668401029165  0.12452550867766811  0.9097975495686376  1.0000
  H   H315      1.0  0.018271631684528167  0.10261102243604027  0.8554103365141001  1.0000
  H   H316      1.0  0.03972691956947982  0.164599565518147  0.7921486654780998  1.0000
  H   H317      1.0  0.9538889828894882  0.14370994033490417  0.9491196958227843  1.0000
  H   H318      1.0  0.9157880662611937  0.1404916961172297  0.9176339793752776  1.0000
  H   H319      1.0  0.9320907618977228  0.1880424929690341  0.8125336266744576  1.0000
  H   H320      1.0  0.9707698988663863  0.19190399758353793  0.8415301242422082  1.0000
  H   H321      1.0  0.027303948295676728  0.1470719222378068  0.9629896643955828  1.0000
  H   H322      1.0  0.03266507489152204  0.13680895022705145  0.04155561411319845  1.0000
  H   H323      1.0  0.969333948314511  0.17190609155449343  0.07144536224191506  1.0000
  H   H324      1.0  0.9644541840386746  0.1821076456473192  0.9942636777284876  1.0000
  H   H325      1.0  0.05276667048760183  0.08375258297388571  0.17570402433387364  1.0000
  H   H326      1.0  0.0356051336928529  0.1211811499370734  0.18092557921854205  1.0000
  H   H327      1.0  0.993914897715223  0.1070393333603084  0.06160458197928469  1.0000
  H   H328      1.0  0.010903054375180021  0.06944620686956583  0.0559678158246871  1.0000
  H   H329      1.0  0.9830170366564854  0.18194218827092845  0.15777652655008173  1.0000
  H   H330      1.0  0.9440128503786797  0.18543546898834098  0.19237666897869377  1.0000
  H   H331      1.0  0.9326971792897131  0.11394648354860325  0.1648798489582531  1.0000
  H   H332      1.0  0.970388665369797  0.11039040654159335  0.13146421960150317  1.0000
  H   H333      1.0  0.013215792350949274  0.15446396287199388  0.20712930295672793  1.0000
  H   H334      1.0  0.04442329921434151  0.17386180623571101  0.24457548645019161  1.0000
  H   H335      1.0  0.0741445631437928  0.1906399926897716  0.11689426492397234  1.0000
  H   H336      1.0  0.04197842550726372  0.17440568733532405  0.07814679018897903  1.0000
  C   C529      1.0  0.5238236491625435  0.737249626214055  0.54575355661224  1.0000
  C   C530      1.0  0.5019752515840201  0.7405083153695339  0.5264032090243405  1.0000
  C   C531      1.0  0.4877120293676071  0.7222966327362902  0.5195194432334096  1.0000
  C   C532      1.0  0.49376610252221054  0.6999186559708834  0.5316650557921105  1.0000
  C   C533      1.0  0.5150059406724984  0.6971593126410638  0.5547816700801077  1.0000
  C   C534      1.0  0.5301559934465722  0.7152624145330111  0.5609074021381087  1.0000
  H   H337      1.0  0.4963866958695576  0.7570684127361716  0.510703032880144  1.0000
  H   H338      1.0  0.47196447549257736  0.7271417414412639  0.502183689800594  1.0000
  H   H339      1.0  0.5216255450380509  0.6801465625402856  0.561935186613838  1.0000
  H   H340      1.0  0.5473584379066831  0.7109345819960816  0.5717349920800937  1.0000
  C   C535      1.0  0.5133464574134904  0.6670577290603042  0.460136719587537  1.0000
  C   C536      1.0  0.48951765555292687  0.6674573275817991  0.46985457546104364  1.0000
  C   C537      1.0  0.4753194428644118  0.656383482520418  0.4379591110497909  1.0000
  C   C538      1.0  0.48339557907251035  0.6476921320118738  0.39739064807258356  1.0000
  C   C539      1.0  0.5067743624320592  0.6480300653075817  0.3887449660375454  1.0000
  C   C540      1.0  0.5216722720836903  0.6577104693277285  0.420391167104186  1.0000
  C   C541      1.0  0.47883828973104753  0.6778765358205839  0.5172726585655363  1.0000
  C   C542      1.0  0.4524409215696523  0.6869549274102196  0.5124990947878968  1.0000
  C   C543      1.0  0.43790186582843454  0.6892176662029554  0.5502061511516119  1.0000
  C   C544      1.0  0.4149800049286015  0.6955831758935037  0.5460062345232166  1.0000
  C   C545      1.0  0.40640045876755315  0.7024754924121642  0.5035700037446009  1.0000
  C   C546      1.0  0.4205971565107831  0.7013609951211413  0.46656293348561834  1.0000
  C   C547      1.0  0.44366557613619917  0.6960535582697399  0.47195453377524127  1.0000
  C   C548      1.0  0.4721531632513894  0.6343200411527596  0.5409731637018713  1.0000
  C   C549      1.0  0.47098401715482635  0.6161880439601888  0.5706833056398126  1.0000
  C   C550      1.0  0.47394801397508307  0.6198612677691164  0.6169097050830777  1.0000
  C   C551      1.0  0.479266803574618  0.6421363584696147  0.6308035756204279  1.0000
  C   C552      1.0  0.4821367296386665  0.659783378958426  0.6000588200740281  1.0000
  C   C553      1.0  0.4783779966303245  0.6566426047186067  0.5532485297824252  1.0000
  C   C554      1.0  0.4687934206269097  0.5994740580874495  0.6532953242637125  1.0000
  C   C555      1.0  0.48622764517996836  0.528070101345598  0.6158033855809639  1.0000
  C   C556      1.0  0.5007538879889191  0.5465703859772181  0.6045933642061493  1.0000
  C   C557      1.0  0.4943005693693987  0.5688576872326596  0.614143906327793  1.0000
  C   C558      1.0  0.4728945772593388  0.57376833657598  0.633135724447415  1.0000
  C   C559      1.0  0.4581137638172262  0.5557818144304244  0.6421672524816471  1.0000
  C   C560      1.0  0.4653625864897067  0.5329463334999024  0.6353142177879972  1.0000
  C   C561      1.0  0.44261392356772594  0.606569103332526  0.6641638890020721  1.0000
  C   C562      1.0  0.4380983214400124  0.6221837658367572  0.6989822222213788  1.0000
  C   C563      1.0  0.4170500316904512  0.6336376696524737  0.7029875085669949  1.0000
  C   C564      1.0  0.39930676973062995  0.6287987999261592  0.6735471173718529  1.0000
  C   C565      1.0  0.4028386968288666  0.6132919830031788  0.6385648849670479  1.0000
  C   C566      1.0  0.42414617862213294  0.602581158629437  0.6338527833839701  1.0000
  C   C567      1.0  0.4805281966843075  0.5836504855591019  0.7321410761875148  1.0000
  C   C568      1.0  0.4967845166892008  0.5779891323057402  0.7654467565073263  1.0000
  C   C569      1.0  0.5184043863918365  0.5877945785420348  0.7660784512847678  1.0000
  C   C570      1.0  0.523953700952625  0.6032864693774828  0.7321103450902338  1.0000
  C   C571      1.0  0.508682678768218  0.60791712725333  0.6970017737299404  1.0000
  C   C572      1.0  0.48643347330617853  0.5981807032693014  0.6955676558568298  1.0000
  H   H341      1.0  0.5260876873619881  0.6734021359251992  0.4840728298030259  1.0000
  H   H342      1.0  0.4572582592435204  0.6547479742256381  0.44427264425784213  1.0000
  H   H343      1.0  0.4715000749869847  0.638508935156973  0.375564739870386  1.0000
  H   H344      1.0  0.5403794557016934  0.6583814704702813  0.4144703090280579  1.0000
  H   H345      1.0  0.44313337752734283  0.6850790808886208  0.5843279128325507  1.0000
  H   H346      1.0  0.4038875186739929  0.6962810277633527  0.5759417378412182  1.0000
  H   H347      1.0  0.4150840725902961  0.7085698002858192  0.434452351393399  1.0000
  H   H348      1.0  0.45401377011704525  0.6978429896595904  0.4424526803855375  1.0000
  H   H349      1.0  0.4673169188777361  0.6298896827505189  0.5062197072434911  1.0000
  H   H350      1.0  0.4655583460304936  0.5995285038016391  0.5577728302154527  1.0000
  H   H351      1.0  0.48131379186390066  0.6461281450646454  0.6659326343789086  1.0000
  H   H352      1.0  0.4848229475462614  0.6770957591031952  0.6126653990919433  1.0000
  H   H353      1.0  0.5171411381431448  0.5434940475381878  0.5883571011427186  1.0000
  H   H354      1.0  0.5052430531850641  0.582671726489501  0.6054606640627448  1.0000
  H   H355      1.0  0.44126862294084507  0.5585850602075239  0.6566347701682415  1.0000
  H   H356      1.0  0.45327040811592584  0.5192874438751313  0.6420033532961488  1.0000
  H   H357      1.0  0.45180403901110083  0.6264495498955249  0.7217266487756402  1.0000
  H   H358      1.0  0.4153950637910807  0.6469280927969446  0.7299898993778487  1.0000
  H   H359      1.0  0.3891446937359385  0.6105406899493078  0.6128088108792543  1.0000
  H   H360      1.0  0.42705334782857  0.5927339848497086  0.6027324255374701  1.0000
  H   H361      1.0  0.4635609442767632  0.5757126956757548  0.7345859057045319  1.0000
  H   H362      1.0  0.4919301509242829  0.5652249038382477  0.7911686849314743  1.0000
  H   H363      1.0  0.5413222745759414  0.610684140994077  0.7293684482995009  1.0000
  H   H364      1.0  0.5145327273267548  0.6188202745426409  0.66989694592815  1.0000
  C   C573      1.0  0.5262700526748274  0.47100685690616534  0.6098483818411903  1.0000
  C   C574      1.0  0.5116591761705542  0.4544038791966113  0.5914302108708127  1.0000
  C   C575      1.0  0.520641534536066  0.43586078229244946  0.5686072492901668  1.0000
  C   C576      1.0  0.5448303386663993  0.4333899240818684  0.562563466824915  1.0000
  C   C577      1.0  0.5591045167130712  0.44970602039060287  0.5837610948160356  1.0000
  C   C578      1.0  0.549888611917131  0.4692880908570607  0.6034802155713064  1.0000
  H   H365      1.0  0.4930560324775415  0.4564466836127505  0.5935677294150205  1.0000
  H   H366      1.0  0.5086695635432099  0.4234267329474049  0.5541192442053853  1.0000
  H   H367      1.0  0.5772126956158766  0.44688210826547914  0.5826889209775672  1.0000
  H   H368      1.0  0.5617668327760809  0.48148568382340196  0.6184633327789476  1.0000
  C   C579      1.0  0.5884389105117523  0.43377318400017983  0.49719159377562333  1.0000
  C   C580      1.0  0.5801630272276729  0.4126658921560945  0.5128917699198199  1.0000
  C   C581      1.0  0.5940284029480231  0.3934037329140882  0.5077904077711836  1.0000
  C   C582      1.0  0.6155308054900959  0.3952949436749191  0.48798933742316364  1.0000
  C   C583      1.0  0.6239420465387617  0.4162482011923324  0.4734979177720175  1.0000
  C   C584      1.0  0.6098629470934652  0.43543756813206547  0.4768578510747337  1.0000
  C   C585      1.0  0.5550329967003366  0.4113483340336524  0.5357318043322885  1.0000
  C   C586      1.0  0.5402168060008041  0.4065552220011535  0.4916019486368565  1.0000
  C   C587      1.0  0.5349916527188527  0.38457999046491775  0.47591543075811815  1.0000
  C   C588      1.0  0.5222836187965703  0.3813166092346844  0.4369654722377071  1.0000
  C   C589      1.0  0.5144874192511223  0.4003655801868783  0.41277326954487703  1.0000
  C   C590      1.0  0.5196190221764053  0.42262180787010345  0.42703591324959844  1.0000
  C   C591      1.0  0.5322333987993161  0.4256133707158183  0.46581514345178204  1.0000
  C   C592      1.0  0.569952691946239  0.390631347782736  0.6062801599902365  1.0000
  C   C593      1.0  0.5657834746905438  0.38247532826569713  0.6495495449618022  1.0000
  C   C594      1.0  0.5432732254581599  0.377780336805379  0.6629483033762926  1.0000
  C   C595      1.0  0.5267066662691491  0.3744607062498733  0.6298987155338223  1.0000
  C   C596      1.0  0.530722242977403  0.3826935229066068  0.5868410336768588  1.0000
  C   C597      1.0  0.552172398042768  0.39267225605129585  0.5754636985501813  1.0000
  C   C598      1.0  0.5376231914138987  0.3756124853723939  0.7158433509295221  1.0000
  C   C599      1.0  0.5248238025130493  0.3020317830312639  0.73974873004773  1.0000
  C   C600      1.0  0.5447207868216214  0.30872138742112326  0.7182847658801748  1.0000
  C   C601      1.0  0.5486048412782635  0.33210408707494316  0.7103151679853171  1.0000
  C   C602      1.0  0.531950129458716  0.34862411680575506  0.7208081304235764  1.0000
  C   C603      1.0  0.5104540513662927  0.34049763559709484  0.7356000319148028  1.0000
  C   C604      1.0  0.5074742257377015  0.31775330104123006  0.7469534650769285  1.0000
  C   C605      1.0  0.5176492244356328  0.3938553366744719  0.7290543081939623  1.0000
  C   C606      1.0  0.5134871409630999  0.41416770294695116  0.7036431053089883  1.0000
  C   C607      1.0  0.4976610969077228  0.4308719554598754  0.718025258836469  1.0000
  C   C608      1.0  0.48532892863062127  0.4268276992694012  0.7568727803659435  1.0000
  C   C609      1.0  0.4906087989063375  0.4078979173475851  0.7842063841141587  1.0000
  C   C610      1.0  0.5064707547506306  0.3918791733373518  0.7711763988670396  1.0000
  C   C611      1.0  0.5654617770433451  0.37208670215751166  0.7868116982503096  1.0000
  C   C612      1.0  0.5827935694266969  0.3802319257719601  0.8151799156069832  1.0000
  C   C613      1.0  0.5907860430278535  0.40270148204151296  0.8108639037221932  1.0000
  C   C614      1.0  0.5823421154957722  0.41638818748152284  0.7757211866982543  1.0000
  C   C615      1.0  0.5660763201734753  0.4074932030605494  0.7462329915740086  1.0000
  C   C616      1.0  0.5571856039041193  0.38519079502186065  0.7504977849633304  1.0000
  H   H369      1.0  0.5780224389294529  0.44923834479824176  0.49740671145658993  1.0000
  H   H370      1.0  0.587945997505364  0.3763176507683445  0.5168936416990714  1.0000
  H   H371      1.0  0.6265715277516571  0.37974141357157654  0.4839703928120894  1.0000
  H   H372      1.0  0.6156027999086253  0.45258645132125713  0.465702462761752  1.0000
  H   H373      1.0  0.5407364310663944  0.3693347883272745  0.49382824590654256  1.0000
  H   H374      1.0  0.5163008423666984  0.3644777010731379  0.4262539775521167  1.0000
  H   H375      1.0  0.5143895090295417  0.43764113803811605  0.4076036160689498  1.0000
  H   H376      1.0  0.5370469548766835  0.44317272085517384  0.47582323746627536  1.0000
  H   H377      1.0  0.5869488211292291  0.3981367049598225  0.5988056742182386  1.0000
  H   H378      1.0  0.580357097609545  0.38113623269634256  0.6737724787519132  1.0000
  H   H379      1.0  0.5089917566068111  0.3705042590705124  0.6390873136208238  1.0000
  H   H380      1.0  0.5158780456600255  0.38412605346776224  0.5640385594944002  1.0000
  H   H381      1.0  0.5579627124696576  0.2961043349131725  0.7123570786713175  1.0000
  H   H382      1.0  0.5651168015183711  0.337770402144043  0.6963359332888533  1.0000
  H   H383      1.0  0.4954031528174463  0.35187963474822276  0.7389770380493419  1.0000
  H   H384      1.0  0.4913571685554045  0.3130206717251896  0.7633843584231386  1.0000
  H   H385      1.0  0.5223326813125699  0.4184316184901023  0.6716281310749763  1.0000
  H   H386      1.0  0.49399318178824353  0.4461226888854011  0.6983129672139272  1.0000
  H   H387      1.0  0.4812776685419117  0.40432948480564107  0.8147940696077892  1.0000
  H   H388      1.0  0.5114636449200146  0.3780567876234477  0.7956007920726589  1.0000
  H   H389      1.0  0.558376967403113  0.3546147691850309  0.7925174386454712  1.0000
  H   H390      1.0  0.5875167693489576  0.36983380807383004  0.8444427493511686  1.0000
  H   H391      1.0  0.5869065214657164  0.4348429699405166  0.7729690462084278  1.0000
  H   H392      1.0  0.5595712794776984  0.41913741972905166  0.7202686289379777  1.0000
  C   C617      1.0  0.9728822469341943  0.30298299172217424  0.2640374903582119  1.0000
  C   C618      1.0  0.9783564143036986  0.27933099248960186  0.2640750505882219  1.0000
  C   C619      1.0  0.9607470911511172  0.26324794528888795  0.26431748480010486  1.0000
  C   C620      1.0  0.9376709287054025  0.27006222594739265  0.27034829191317145  1.0000
  C   C621      1.0  0.9325097115470493  0.2934968846572905  0.26201811581021756  1.0000
  C   C622      1.0  0.9500300538109789  0.30958229506989104  0.26037127045259556  1.0000
  H   H393      1.0  0.9959220444933894  0.27359456211954536  0.268749933397926  1.0000
  H   H394      1.0  0.9648063048612526  0.24536546444786955  0.26623032487752524  1.0000
  H   H395      1.0  0.9148938950827327  0.30021291766774855  0.2649611305598224  1.0000
  H   H396      1.0  0.9459036733452322  0.32771465791573917  0.2616957807454041  1.0000
  C   C623      1.0  0.9281485690642237  0.27829048953017965  0.367909282081067  1.0000
  C   C624      1.0  0.912713053479081  0.2641908933916453  0.34390488053828716  1.0000
  C   C625      1.0  0.893057123945159  0.25689470415729176  0.3668951558707959  1.0000
  C   C626      1.0  0.8875427359693127  0.2660680056968236  0.4090718796057059  1.0000
  C   C627      1.0  0.9021280250432145  0.2812383916730352  0.4305597457378131  1.0000
  C   C628      1.0  0.9227178402140768  0.287000339247534  0.40983674247136487  1.0000
  C   C629      1.0  0.9184415734987597  0.2541680063834848  0.29335871318723106  1.0000
  C   C630      1.0  0.9251224367754164  0.22755789773768462  0.30530559798351525  1.0000
  C   C631      1.0  0.9104100857725443  0.20907250984952022  0.29370085273695884  1.0000
  C   C632      1.0  0.914543898149221  0.18673906654954375  0.3070938063886296  1.0000
  C   C633      1.0  0.9334477488201532  0.1820436288094623  0.335220955359966  1.0000
  C   C634      1.0  0.9472381910325098  0.19980255873048686  0.35090474158561274  1.0000
  C   C635      1.0  0.9434243342383319  0.22237767167225903  0.33481837798558567  1.0000
  C   C636      1.0  0.8770484686150483  0.26737366608810775  0.2599270353685677  1.0000
  C   C637      1.0  0.8586266822382598  0.26288627691269456  0.23009396904150262  1.0000
  C   C638      1.0  0.8607222670615597  0.2470119218185796  0.19502329936785573  1.0000
  C   C639      1.0  0.8830345416017404  0.24100218828300035  0.18456140948351388  1.0000
  C   C640      1.0  0.9014404189237089  0.24505137817267453  0.2130532341425841  1.0000
  C   C641      1.0  0.8977801507331893  0.2551395436028801  0.25591799299995066  1.0000
  C   C642      1.0  0.8380218929194044  0.2339547430587323  0.17223380053758242  1.0000
  C   C643      1.0  0.7807559725501402  0.24292959019524016  0.26693031098225783  1.0000
  C   C644      1.0  0.776483773126931  0.24437126543205498  0.2206516686736151  1.0000
  C   C645      1.0  0.7940536598766273  0.23845625981236215  0.19139156658252135  1.0000
  C   C646      1.0  0.8162849842325258  0.23376102707025515  0.20667175106387836  1.0000
  C   C647      1.0  0.819211421337984  0.2311864795839518  0.25405227393836105  1.0000
  C   C648      1.0  0.8017432548214176  0.23604447507918544  0.2834533976203107  1.0000
  C   C649      1.0  0.8461997800673312  0.20688637984000738  0.164240983591446  1.0000
  C   C650      1.0  0.8573936898540652  0.20015634974571422  0.12408875625407721  1.0000
  C   C651      1.0  0.8717971813548959  0.18108284692622037  0.12406861031252636  1.0000
  C   C652      1.0  0.8738845230023075  0.16709631214784765  0.16191498098391519  1.0000
  C   C653      1.0  0.8600644698514248  0.17139643218282502  0.19976340039512272  1.0000
  C   C654      1.0  0.8463776778813404  0.19101836310496098  0.20045519154058036  1.0000
  C   C655      1.0  0.8211005414016492  0.23865787501132515  0.09041942461644124  1.0000
  C   C656      1.0  0.8112739581754329  0.2506848811349223  0.055277390505775285  1.0000
  C   C657      1.0  0.8106954395599248  0.2746310671616774  0.05725374151757628  1.0000
  C   C658      1.0  0.8206768198771164  0.2857435979691239  0.09398320753112109  1.0000
  C   C659      1.0  0.830559850548041  0.273363002161758  0.12905695031449607  1.0000
  C   C660      1.0  0.8312857631731287  0.24913704175547793  0.12785263275771963  1.0000
  H   H397      1.0  0.9447837548963418  0.2834454622723161  0.35259153736969995  1.0000
  H   H398      1.0  0.8814230873316293  0.24505492898296938  0.3507305987010207  1.0000
  H   H399      1.0  0.8719647050770862  0.2609788345402468  0.426100322065712  1.0000
  H   H400      1.0  0.9352217355303866  0.298371421604255  0.4257315488983407  1.0000
  H   H401      1.0  0.8945043494912477  0.2117810205114392  0.27454137940883766  1.0000
  H   H402      1.0  0.903603675442897  0.17260830091690363  0.294888438918549  1.0000
  H   H403      1.0  0.9614947123090051  0.19661179767906972  0.37463256325286415  1.0000
  H   H404      1.0  0.9544484582682584  0.2357187517523079  0.3489072202623515  1.0000
  H   H405      1.0  0.8742540192508906  0.2774425483406944  0.28952961846602576  1.0000
  H   H406      1.0  0.8420498719914759  0.2702473885148746  0.238287903946511  1.0000
  H   H407      1.0  0.887280586837628  0.2318147256746276  0.15301798686444615  1.0000
  H   H408      1.0  0.9178203520896459  0.23776307633916485  0.20443862466146331  1.0000
  H   H409      1.0  0.7599210393520435  0.24922728465857366  0.20607829942971975  1.0000
  H   H410      1.0  0.7897349285974854  0.2389935992352993  0.15544369480982181  1.0000
  H   H411      1.0  0.8367874921375047  0.226971385294898  0.2686676423485404  1.0000
  H   H412      1.0  0.8052095644605965  0.23527788890858325  0.32020164374886056  1.0000
  H   H413      1.0  0.857617908665539  0.21201650784379614  0.09592643724918597  1.0000
  H   H414      1.0  0.8818710237185706  0.177707866471994  0.09367931112467624  1.0000
  H   H415      1.0  0.8594375017349819  0.16037310403024288  0.22947183504988178  1.0000
  H   H416      1.0  0.8386491778298256  0.194099968940333  0.23203310127993004  1.0000
  H   H417      1.0  0.8198439210923438  0.21952550958950048  0.08865443526260583  1.0000
  H   H418      1.0  0.8029899581328999  0.24119445833607114  0.028189772118462218  1.0000
  H   H419      1.0  0.8199181917383747  0.3043574800075033  0.09637442835621479  1.0000
  H   H420      1.0  0.8375066422239009  0.2824596151719192  0.15805413079551958  1.0000
  C   C661      1.0  0.7471992020633405  0.2837368838563642  0.3467697017181438  1.0000
  C   C662      1.0  0.7324434079166044  0.27209628203741526  0.3750832860129846  1.0000
  C   C663      1.0  0.7136718495523847  0.283866613971894  0.39370633096523516  1.0000
  C   C664      1.0  0.7087002156706174  0.3064797275994819  0.3815948640701796  1.0000
  C   C665      1.0  0.7238343232268212  0.31810236660417246  0.3525949519360645  1.0000
  C   C666      1.0  0.7434236434080234  0.3069477957941073  0.3374011559837306  1.0000
  H   H421      1.0  0.7360310714530709  0.2540650203093351  0.3826089902804507  1.0000
  H   H422      1.0  0.7026846377733221  0.2740969377598492  0.41609222805121876  1.0000
  H   H423      1.0  0.7204021920313317  0.3356912587427036  0.3406822128034258  1.0000
  H   H424      1.0  0.7549324547651879  0.31655676938444177  0.3144136123043134  1.0000
  C   C667      1.0  0.692383867828033  0.3605097927186735  0.40796556010359203  1.0000
  C   C668      1.0  0.6776979676772076  0.34362272951586864  0.38928105295677956  1.0000
  C   C669      1.0  0.6557002902272258  0.35129525900573494  0.37523352693302475  1.0000
  C   C670      1.0  0.6486980604891758  0.3739688697714819  0.38002074897612254  1.0000
  C   C671      1.0  0.6628135961598521  0.3897185502606344  0.40070277744619615  1.0000
  C   C672      1.0  0.6850129290826222  0.38330230829329553  0.4133537458268504  1.0000
  C   C673      1.0  0.6837208448963539  0.3159800544144787  0.3948946000600982  1.0000
  C   C674      1.0  0.6777716878283345  0.31312984644980874  0.4482062247098026  1.0000
  C   C675      1.0  0.6550262743750931  0.31218632151175024  0.46399176501311284  1.0000
  C   C676      1.0  0.6508123201262471  0.3119795289516401  0.5104230384382509  1.0000
  C   C677      1.0  0.6685610390843201  0.312748690238341  0.5424243544068047  1.0000
  C   C678      1.0  0.6910915597385261  0.3147178073733095  0.5264100381570697  1.0000
  C   C679      1.0  0.6951534952454209  0.31530779601554787  0.48004705605922254  1.0000
  C   C680      1.0  0.6698457963002966  0.3053424970219807  0.31389493967353843  1.0000
  C   C681      1.0  0.6620233148935153  0.28943068513933984  0.2820834735948536  1.0000
  C   C682      1.0  0.6507174512863795  0.26911734052944325  0.2931637414478153  1.0000
  C   C683      1.0  0.6465697479263223  0.2655488905510958  0.3390176117007081  1.0000
  C   C684      1.0  0.6560616086456252  0.28017425278631153  0.37152872242748897  1.0000
  C   C685      1.0  0.6678511256505286  0.30057262308468913  0.36005919400896874  1.0000
  C   C686      1.0  0.6437015500673804  0.2503731670014597  0.25405193248172464  1.0000
  C   C687      1.0  0.5829826462772952  0.289266317388318  0.2004452892981232  1.0000
  C   C688      1.0  0.6049799968556587  0.2934261337417292  0.18421244080105695  1.0000
  C   C689      1.0  0.6234579699164364  0.2810319573904518  0.20007139428120504  1.0000
  C   C690      1.0  0.6214878008780353  0.2634824504787678  0.23298337509918404  1.0000
  C   C691      1.0  0.5991651340021843  0.25976337442280073  0.24937602530211114  1.0000
  C   C692      1.0  0.5799348106084057  0.2727362048405536  0.23409208479775312  1.0000
  C   C693      1.0  0.6398829903082759  0.22364345860363813  0.26889436955514645  1.0000
  C   C694      1.0  0.6532075436256353  0.21389787663215035  0.3040237697702636  1.0000
  C   C695      1.0  0.6509498688397651  0.19074406831787757  0.3151153056922283  1.0000
  C   C696      1.0  0.6355790951247677  0.17639188902090616  0.2910381738858835  1.0000
  C   C697      1.0  0.622007457138144  0.18598588043255085  0.25799814682923394  1.0000
  C   C698      1.0  0.6243621509307318  0.20915212167498837  0.24721016585707767  1.0000
  C   C699      1.0  0.6575243004292669  0.23939940631951925  0.17294744490777317  1.0000
  C   C700      1.0  0.6749512556333568  0.23657033490419616  0.141381144694063  1.0000
  C   C701      1.0  0.6981223430664893  0.23942061326746156  0.15367802254271348  1.0000
  C   C702      1.0  0.7035841547454714  0.2444090730103008  0.19817630994888033  1.0000
  C   C703      1.0  0.686270452012446  0.2466012452508746  0.2303811340727612  1.0000
  C   C704      1.0  0.6630989007076753  0.24565212369814904  0.2173081252894487  1.0000
  H   H425      1.0  0.7096812412835158  0.3547210761209344  0.4213267582880724  1.0000
  H   H426      1.0  0.6422579237475295  0.3395161897794871  0.3631254746043338  1.0000
  H   H427      1.0  0.631083091579199  0.3785833489218169  0.3704872796863015  1.0000
  H   H428      1.0  0.695717486406963  0.39517167457783225  0.43168313807174974  1.0000
  H   H429      1.0  0.6410702918211851  0.3115885080853626  0.43938981435653696  1.0000
  H   H430      1.0  0.6327204485566792  0.3102621425425  0.5210730709292795  1.0000
  H   H431      1.0  0.705942552857857  0.3149326033746131  0.5489837363931034  1.0000
  H   H432      1.0  0.7129360753812659  0.31738208095398723  0.4692467826481539  1.0000
  H   H433      1.0  0.6780915736868429  0.3208340299076271  0.3035020240297605  1.0000
  H   H434      1.0  0.6649945951236056  0.29431866235915033  0.24643505929232504  1.0000
  H   H435      1.0  0.6374734248866811  0.2502230535468013  0.3475379791501674  1.0000
  H   H436      1.0  0.6539783110221254  0.27519180940428467  0.40664753748687604  1.0000
  H   H437      1.0  0.6072468978622328  0.30714559167166805  0.15956712515165122  1.0000
  H   H438      1.0  0.6402739157998061  0.2851413054289884  0.18606859907682582  1.0000
  H   H439      1.0  0.5961012344530049  0.24701348870628367  0.2756125288773967  1.0000
  H   H440      1.0  0.5636236145134711  0.26951330715957544  0.2502788366488979  1.0000
  H   H441      1.0  0.6671084646653953  0.22376429404869275  0.3221486294899264  1.0000
  H   H442      1.0  0.6620767341294047  0.1843089592790368  0.3412340067279369  1.0000
  H   H443      1.0  0.6112214726432111  0.17466400903512638  0.2361124837156568  1.0000
  H   H444      1.0  0.6144382918523453  0.2161389980506944  0.218525076741774  1.0000
  H   H445      1.0  0.6394332856231368  0.23723195740051994  0.16301105678693545  1.0000
  H   H446      1.0  0.6709600309853831  0.23196272502380771  0.10711289811608513  1.0000
  H   H447      1.0  0.7209852854586544  0.24654608857164884  0.20925965091157012  1.0000
  H   H448      1.0  0.6913769872301073  0.25052028878620186  0.26601452428328576  1.0000
  C   C705      1.0  0.5009222708883787  0.005405713542282697  0.05277997666674411  1.0000
  C   C706      1.0  0.5125996160852095  0.985362504304582  0.06410438601477104  1.0000
  C   C707      1.0  0.5015260494121487  0.9647430922803606  0.0670077917945471  1.0000
  C   C708      1.0  0.4774839858115276  0.9636309608225018  0.06354371421771209  1.0000
  C   C709      1.0  0.46615688945277434  0.9830998454714568  0.04615366917970021  1.0000
  C   C710      1.0  0.4778078659079967  0.004004312119544329  0.040363930451970835  1.0000
  H   H449      1.0  0.5307776371514816  0.9857822630327894  0.07289621149021196  1.0000
  H   H450      1.0  0.5113046802370538  0.9503828800630814  0.08090507689826176  1.0000
  H   H451      1.0  0.4479741714656323  0.9830730149125979  0.03871469489789364  1.0000
  H   H452      1.0  0.4687390341379231  0.019875185596299527  0.03175632083189735  1.0000
  C   C711      1.0  0.43150086582589536  0.9634502142974912  0.12079813864856127  1.0000
  C   C712      1.0  0.438464729143664  0.9433410009175712  0.09958173054243574  1.0000
  C   C713      1.0  0.4232676994696754  0.9245638332740445  0.09990167541079396  1.0000
  C   C714      1.0  0.40220560157305246  0.926182612794304  0.12065745851434186  1.0000
  C   C715      1.0  0.39572749761669135  0.9467077191304805  0.14144977747799042  1.0000
  C   C716      1.0  0.4105094510138811  0.9654455629512473  0.14204766804842295  1.0000
  C   C717      1.0  0.46440069402931766  0.9406360429350424  0.08170032940456524  1.0000
  C   C718      1.0  0.4760872190607115  0.9312790835351824  0.12807116500505075  1.0000
  C   C719      1.0  0.47798831877940995  0.9079026551899761  0.13735332221044091  1.0000
  C   C720      1.0  0.48544540491104665  0.9001740257258487  0.17932858652984246  1.0000
  C   C721      1.0  0.4914470791810164  0.915770278874164  0.21290060302608876  1.0000
  C   C722      1.0  0.49112317917452186  0.9389985064130439  0.20340674270609654  1.0000
  C   C723      1.0  0.48261095474349486  0.9469646702183265  0.1622881930875604  1.0000
  C   C724      1.0  0.4508529504237721  0.92190255903884  0.006037102553452689  1.0000
  C   C725      1.0  0.45411763477600436  0.9080551985975571  0.9685656512688913  1.0000
  C   C726      1.0  0.47487672727084795  0.897139892669088  0.9607667816922613  1.0000
  C   C727      1.0  0.4924017715620091  0.9005862536056375  0.9933110137127783  1.0000
  C   C728      1.0  0.4892481576767551  0.9133115431744772  0.032325848994115836  1.0000
  C   C729      1.0  0.46799781175922783  0.9242264627149875  0.03936482833370378  1.0000
  C   C730      1.0  0.4796032315710361  0.8814428066406619  0.9164969287758828  1.0000
  C   C731      1.0  0.4989709507354785  0.8143986072787264  0.9759172126517653  1.0000
  C   C732      1.0  0.4766459433865892  0.8223473533461477  0.980660045332124  1.0000
  C   C733      1.0  0.4703228798157992  0.8432855746519907  0.9626004038300241  1.0000
  C   C734      1.0  0.4863363674155044  0.8570814705419465  0.939900366638502  1.0000
  C   C735      1.0  0.5093338324094877  0.8500224950326746  0.94150521282984  1.0000
  C   C736      1.0  0.5151741741507844  0.8286104505004759  0.9572292909385884  1.0000
  C   C737      1.0  0.4988451171320812  0.8910076142348325  0.8839868424190112  1.0000
  C   C738      1.0  0.5086882662360762  0.9126188369231026  0.8887228459666408  1.0000
  C   C739      1.0  0.5282174984522735  0.9182265493079463  0.864588690902008  1.0000
  C   C740      1.0  0.5371413598717294  0.9031296926700301  0.8326624953934744  1.0000
  C   C741      1.0  0.5246629510344447  0.8832523210315921  0.8204520060738468  1.0000
  C   C742      1.0  0.5060192541418879  0.8773467878221637  0.8467509962136038  1.0000
  C   C743      1.0  0.4504644871559394  0.8586213531903026  0.8638989484963691  1.0000
  C   C744      1.0  0.4366018348617163  0.8573635312311694  0.8262431106281222  1.0000
  C   C745      1.0  0.42913373242983044  0.8774175017501599  0.8043898858950081  1.0000
  C   C746      1.0  0.43577799654374516  0.8986663652125317  0.8220841687961014  1.0000
  C   C747      1.0  0.4499843635544774  0.899584143270926  0.8591868469132915  1.0000
  C   C748      1.0  0.45825862877551793  0.8797722349832703  0.8810229988145826  1.0000
  H   H453      1.0  0.4433326965689609  0.9775515049349397  0.1272714735624734  1.0000
  H   H454      1.0  0.4282997599249143  0.9078666360085489  0.08563117820343412  1.0000
  H   H455      1.0  0.3904431938515186  0.9114241712080474  0.12000186177234844  1.0000
  H   H456      1.0  0.40575603382405817  0.9816655556372156  0.15847821993799655  1.0000
  H   H457      1.0  0.47285577469810086  0.895043299300433  0.11148422597598082  1.0000
  H   H458      1.0  0.4859152174004932  0.881900486119487  0.18660092997305905  1.0000
  H   H459      1.0  0.49682822707820506  0.9515244755737262  0.2283351259071234  1.0000
  H   H460      1.0  0.48339060410583  0.9659138304547606  0.15707210150907525  1.0000
  H   H461      1.0  0.4341951006355749  0.930946969513276  0.00888143633512195  1.0000
  H   H462      1.0  0.43912595697648305  0.906264482423241  0.9462241435456469  1.0000
  H   H463      1.0  0.5092501170146095  0.8929658234475896  0.9897018170654499  1.0000
  H   H464      1.0  0.5034304092178514  0.9152372797533481  0.0555467997919382  1.0000
  H   H465      1.0  0.4625786618155151  0.8116673026311613  0.9926998063335241  1.0000
  H   H466      1.0  0.45172400661922085  0.8473820146207605  0.9629862498292182  1.0000
  H   H467      1.0  0.5231498041830219  0.8609893247302559  0.9287415637591557  1.0000
  H   H468      1.0  0.5326078819695084  0.822205030654345  0.9528757188237883  1.0000
  H   H469      1.0  0.5024110483864437  0.9250529078487606  0.9141579508161667  1.0000
  H   H470      1.0  0.5356744919576113  0.9349807536985054  0.8717251346039154  1.0000
  H   H471      1.0  0.5307991356028858  0.8713635848627761  0.7953037247989431  1.0000
  H   H472      1.0  0.49796855339325613  0.8606991258332229  0.8400003985108903  1.0000
  H   H473      1.0  0.4566082998138127  0.8425438010536445  0.8775845304854817  1.0000
  H   H474      1.0  0.43223350275507  0.8404882263941139  0.813568240282916  1.0000
  H   H475      1.0  0.4306206588613544  0.9147879942389289  0.8068893484738581  1.0000
  H   H476      1.0  0.4553653683558256  0.916701240780633  0.8715066023565844  1.0000
  C   C749      1.0  0.5263473327376267  0.22628233030725367  0.17550768676791206  1.0000
  C   C750      1.0  0.5480357598076763  0.21823702686455865  0.18726881915396482  1.0000
  C   C751      1.0  0.5522594975090377  0.19515945323716755  0.19349869548608456  1.0000
  C   C752      1.0  0.5348842668381978  0.17926521654030034  0.18591152902405658  1.0000
  C   C753      1.0  0.5138715556266464  0.18719565817133288  0.1698835545088633  1.0000
  C   C754      1.0  0.5094426479119344  0.21058334256330552  0.16379708996405462  1.0000
  H   H477      1.0  0.5611775994892544  0.2309097613738955  0.19532070809820795  1.0000
  H   H478      1.0  0.5692884502420981  0.18968464367380367  0.20521202394303364  1.0000
  H   H479      1.0  0.5004654555034652  0.17525191221338146  0.16092612256474179  1.0000
  H   H480      1.0  0.49264211198416474  0.21556396634806652  0.15260448287769926  1.0000
  C   C755      1.0  0.5023061624844259  0.149205476433944  0.24595223960837778  1.0000
  C   C756      1.0  0.5170768694609938  0.13979946555273587  0.21442964584413382  1.0000
  C   C757      1.0  0.5148386528679579  0.11641890478142615  0.20433345601743516  1.0000
  C   C758      1.0  0.49855967433019877  0.10238725059822619  0.22490963293020777  1.0000
  C   C759      1.0  0.4850693458414799  0.11217243404159219  0.25822521549247646  1.0000
  C   C760      1.0  0.4863553212981583  0.13564875382824437  0.2671963057020562  1.0000
  C   C761      1.0  0.5393096973855913  0.15283343174225347  0.19784441409824616  1.0000
  C   C762      1.0  0.556532886209277  0.147418261682474  0.24023215803448522  1.0000
  C   C763      1.0  0.5701113228128583  0.1273994659509685  0.24176837144189584  1.0000
  C   C764      1.0  0.5883474502984354  0.12507320346225007  0.2709458410269675  1.0000
  C   C765      1.0  0.5919200070914179  0.1416143696071637  0.30401386752780635  1.0000
  C   C766      1.0  0.5760917393677989  0.15915594400788016  0.3096390241567645  1.0000
  C   C767      1.0  0.5585825350354343  0.16208225194007764  0.27750488155662983  1.0000
  C   C768      1.0  0.5352707355616516  0.14129100732506203  0.11122130436591054  1.0000
  C   C769      1.0  0.5443106156803188  0.1346705763654408  0.06982822361166463  1.0000
  C   C770      1.0  0.5677717323997707  0.13162331979142103  0.06232539693884099  1.0000
  C   C771      1.0  0.5819748644530821  0.13604937941924775  0.10020557181723884  1.0000
  C   C772      1.0  0.5729305870407405  0.1435525859426027  0.14070301181406353  1.0000
  C   C773      1.0  0.5496582056303446  0.14521667515069933  0.14882831393514448  1.0000
  C   C774      1.0  0.5767311182486475  0.1224734765141475  0.014897902269457308  1.0000
  C   C775      1.0  0.5447471795633786  0.053499364174726276  0.016973958619103335  1.0000
  C   C776      1.0  0.5338352884925297  0.07148646501353714  0.9946904985240561  1.0000
  C   C777      1.0  0.5440067276548683  0.09309098245724792  0.9932017475891127  1.0000
  C   C778      1.0  0.5653452653592155  0.09688806542509501  0.015447647454149838  1.0000
  C   C779      1.0  0.5755829403840383  0.07892139753797354  0.04014778840109488  1.0000
  C   C780      1.0  0.5653814894682032  0.05709750203248557  0.03974316228689581  1.0000
  C   C781      1.0  0.6037486047025465  0.12327256504442927  0.006679041029987731  1.0000
  C   C782      1.0  0.6162893328097313  0.14268361941450394  0.01854124458043116  1.0000
  C   C783      1.0  0.6395823351290014  0.144012935910538  0.01306769469805924  1.0000
  C   C784      1.0  0.6511291725286608  0.12555404701528766  0.9927612685280859  1.0000
  C   C785      1.0  0.6392134999262549  0.10597905262059938  0.9808239445176223  1.0000
  C   C786      1.0  0.6155562563517915  0.10529457816227665  0.9851365418360478  1.0000
  C   C787      1.0  0.5713303002940381  0.12839996350499908  0.9277342666816136  1.0000
  C   C788      1.0  0.5660452714161728  0.14076869526101285  0.8887023585684535  1.0000
  C   C789      1.0  0.5581907851068449  0.16351618294934545  0.8928783732322969  1.0000
  C   C790      1.0  0.555790245934117  0.1732827094358818  0.9357755704701267  1.0000
  C   C791      1.0  0.5605598117684721  0.16037223996744676  0.9737899378066514  1.0000
  C   C792      1.0  0.5683107431665861  0.13754112318497072  0.9713177917587178  1.0000
  H   H481      1.0  0.5044728772522363  0.16745704837823835  0.2548113320412003  1.0000
  H   H482      1.0  0.5260477573507583  0.10734907842830954  0.18031778640565232  1.0000
  H   H483      1.0  0.4994967732012852  0.08359713476114417  0.2183830307810087  1.0000
  H   H484      1.0  0.4764619756105959  0.14310994244278713  0.29474980752414837  1.0000
  H   H485      1.0  0.5682018689911496  0.11392672871964914  0.21610961249549196  1.0000
  H   H486      1.0  0.5993374326738379  0.11017775633120559  0.2679563881748048  1.0000
  H   H487      1.0  0.578409542768278  0.17227441822543657  0.3361323031226642  1.0000
  H   H488      1.0  0.5463818452149231  0.17682265832949973  0.28087779021153136  1.0000
  H   H489      1.0  0.5166816887520252  0.14362789502607268  0.11458772534471946  1.0000
  H   H490      1.0  0.5319063463786472  0.13094820266060783  0.04342850376415361  1.0000
  H   H491      1.0  0.6004186176428132  0.13344562518834252  0.09807351657921441  1.0000
  H   H492      1.0  0.58499068442713  0.14809446232407542  0.16657552261488817  1.0000
  H   H493      1.0  0.5168802643425893  0.06926849514072901  0.9799293281301105  1.0000
  H   H494      1.0  0.5348124376726678  0.10644888807270232  0.974882599043307  1.0000
  H   H495      1.0  0.5911434024742293  0.08230282862160403  0.060499286847080155  1.0000
  H   H496      1.0  0.5745723221004579  0.04313983485631974  0.05831737894013331  1.0000
  H   H497      1.0  0.6076127622039131  0.1581592022877752  0.03133250485472952  1.0000
  H   H498      1.0  0.6484199334758194  0.15970198595239285  0.02258067658969276  1.0000
  H   H499      1.0  0.6484776688062368  0.09103398620112155  0.9664964240519746  1.0000
  H   H500      1.0  0.6072403747255531  0.09047071900440505  0.9721133857216577  1.0000
  H   H501      1.0  0.5781108808575229  0.11108999892053922  0.9247089608826232  1.0000
  H   H502      1.0  0.5692684849951618  0.1331444278019726  0.8558200844778461  1.0000
  H   H503      1.0  0.550058360881109  0.19112383727108012  0.9398798792403147  1.0000
  H   H504      1.0  0.5598952062458206  0.16890811252908414  0.006986352002797291  1.0000
  C   C793      1.0  0.0781160581200108  0.7836827506163542  0.15680269222291235  1.0000
  C   C794      1.0  0.08304853750218702  0.7603770723918085  0.15434522881034637  1.0000
  C   C795      1.0  0.10519917015117802  0.7522684617043665  0.15441966635709356  1.0000
  C   C796      1.0  0.12369247109410389  0.7673960574928314  0.15500628885852308  1.0000
  C   C797      1.0  0.11865152099164918  0.7903121366531463  0.16465380466491997  1.0000
  C   C798      1.0  0.09627185215273766  0.7985528937536784  0.1664980119584129  1.0000
  H   H505      1.0  0.06882811272257063  0.748428382376404  0.15229170859870658  1.0000
  H   H506      1.0  0.10783482203760185  0.7341612247840599  0.15184440040495065  1.0000
  H   H507      1.0  0.13321274324965174  0.8019685656810247  0.16929249307115987  1.0000
  H   H508      1.0  0.09287951154394669  0.8170580450236559  0.16794305644389007  1.0000
  C   C799      1.0  0.149838683615529  0.7846423232629244  0.07378160854853952  1.0000
  C   C800      1.0  0.16234288787163334  0.7744066667719397  0.11021947059455185  1.0000
  C   C801      1.0  0.18601163116163766  0.7777496318934033  0.11137974024522562  1.0000
  C   C802      1.0  0.1967300850294804  0.790665277013624  0.07898233457838419  1.0000
  C   C803      1.0  0.18400615777672838  0.8022024171853521  0.045410318082137885  1.0000
  C   C804      1.0  0.16067055833471516  0.7990151013325084  0.042882514602462216  1.0000
  C   C805      1.0  0.1503274707901178  0.7594549692721758  0.14894679938799432  1.0000
  C   C806      1.0  0.1540279438411412  0.7335925896487538  0.13107359320939876  1.0000
  C   C807      1.0  0.1704929127460788  0.7193940852357139  0.1512010961018696  1.0000
  C   C808      1.0  0.17209563504272576  0.6963606941536706  0.14076618129180768  1.0000
  C   C809      1.0  0.1587153136378231  0.6872650960577977  0.10648973975455492  1.0000
  C   C810      1.0  0.14307537268298434  0.7015224617925232  0.08373745969765521  1.0000
  C   C811      1.0  0.14146520149719483  0.7244970574853846  0.09469582753140247  1.0000
  C   C812      1.0  0.1742763895902659  0.7785905976335452  0.21813991365585284  1.0000
  C   C813      1.0  0.18118852253536263  0.7786246989448606  0.26308892382214016  1.0000
  C   C814      1.0  0.172237417857873  0.7633102453239238  0.29462073691556834  1.0000
  C   C815      1.0  0.15487236813612817  0.7489040368850175  0.2792282132008177  1.0000
  C   C816      1.0  0.1481080382320851  0.7478160551335474  0.2339770139112678  1.0000
  C   C817      1.0  0.15831804217995674  0.7622974069054899  0.20164311917880698  1.0000
  C   C818      1.0  0.17943641098287  0.763917015671712  0.347927239715726  1.0000
  C   C819      1.0  0.24992452781662416  0.7904956803409205  0.3751720647384628  1.0000
  C   C820      1.0  0.2330372868747438  0.7924291927553335  0.408419697430077  1.0000
  C   C821      1.0  0.21142284336466502  0.7824686634851792  0.4011295982417648  1.0000
  C   C822      1.0  0.20519123371921413  0.772342012042384  0.36023333689356074  1.0000
  C   C823      1.0  0.22292819456548593  0.7699708492213513  0.3285167957598104  1.0000
  C   C824      1.0  0.24457585849201322  0.7786096498841223  0.3359448434292504  1.0000
  C   C825      1.0  0.17867420330519018  0.7374278283111824  0.36518787268852143  1.0000
  C   C826      1.0  0.1586862426875325  0.7281287041759534  0.3836231164907218  1.0000
  C   C827      1.0  0.15871232519135003  0.7053214835440507  0.40129008286089857  1.0000
  C   C828      1.0  0.1784797529920929  0.6919302769731639  0.39859598999926943  1.0000
  C   C829      1.0  0.19671367337372495  0.7000612189799988  0.37411013459908815  1.0000
  C   C830      1.0  0.19686244856152288  0.7219881151242554  0.357573389695577  1.0000
  C   C831      1.0  0.15469815932922848  0.7800891361753487  0.4178917045253361  1.0000
  C   C832      1.0  0.141376782369555  0.7965811538267302  0.43912006361373757  1.0000
  C   C833      1.0  0.136326851990474  0.8170442340637656  0.4170722085978443  1.0000
  C   C834      1.0  0.144122045884127  0.8206355428307556  0.3736764846707904  1.0000
  C   C835      1.0  0.15702076491571335  0.8039168156314731  0.3520622795831949  1.0000
  C   C836      1.0  0.16222756880097922  0.7827315998257091  0.3726896749914357  1.0000
  H   H509      1.0  0.13149276838563  0.7812033982429445  0.07021850854713257  1.0000
  H   H510      1.0  0.19683061796984289  0.7694330543868987  0.1367567974665542  1.0000
  H   H511      1.0  0.21572016872071073  0.7917972806447515  0.07897516398901863  1.0000
  H   H512      1.0  0.15098254186464571  0.8080790645545407  0.01592227217882214  1.0000
  H   H513      1.0  0.18208993698844977  0.725736636965998  0.17717877554672237  1.0000
  H   H514      1.0  0.18436087810172386  0.6843894371038581  0.1584604641929009  1.0000
  H   H515      1.0  0.13072641337829236  0.6939658293193574  0.05966988867713119  1.0000
  H   H516      1.0  0.12841151671341386  0.7340845632521076  0.0775465094220913  1.0000
  H   H517      1.0  0.1826247496152008  0.790845945703001  0.19635088277039242  1.0000
  H   H518      1.0  0.1936897681601729  0.7916840872794545  0.2733613052732495  1.0000
  H   H519      1.0  0.14449210357125084  0.7377527657932743  0.3009325628404373  1.0000
  H   H520      1.0  0.13527475663537789  0.7346564980837922  0.22475973346680408  1.0000
  H   H521      1.0  0.23664916104841904  0.8016161655292907  0.43934883956016235  1.0000
  H   H522      1.0  0.19985737563883288  0.7847153646957562  0.429644641952114  1.0000
  H   H523      1.0  0.21982033289960057  0.7609039439386484  0.29746268050078256  1.0000
  H   H524      1.0  0.25701221458269674  0.7765145764551913  0.3097551194131592  1.0000
  H   H525      1.0  0.14281938253790225  0.7378302807661988  0.3850367469656451  1.0000
  H   H526      1.0  0.14352472267667796  0.6996977700223878  0.4184619371082158  1.0000
  H   H527      1.0  0.21160983812836387  0.6889778384382458  0.3695687613342379  1.0000
  H   H528      1.0  0.21114200159107208  0.7271005075972929  0.33690570240423456  1.0000
  H   H529      1.0  0.16029178479210127  0.7660897906775442  0.43879909437546993  1.0000
  H   H530      1.0  0.13584723355697986  0.7942698658687077  0.4737540102493586  1.0000
  H   H531      1.0  0.14142711121173293  0.8373347264913191  0.35549391877956665  1.0000
  H   H532      1.0  0.16293698980289437  0.8081835716959777  0.31924146768714934  1.0000
  C   C837      1.0  0.3016538691603072  0.8308570766145968  0.33481598778913046  1.0000
  C   C838      1.0  0.31273453299652754  0.8159267996030136  0.3064935256217419  1.0000
  C   C839      1.0  0.33319027791924377  0.8217875789097544  0.2874067825571856  1.0000
  C   C840      1.0  0.3433135860453144  0.8435304840030599  0.29566354548330165  1.0000
  C   C841      1.0  0.3331653050298767  0.8572437879765421  0.32882103362289167  1.0000
  C   C842      1.0  0.31242094111427005  0.8512661876716144  0.3477360239993112  1.0000
  H   H533      1.0  0.3052987224094219  0.79907132103441  0.29902586898247313  1.0000
  H   H534      1.0  0.34146675950275757  0.8089759653634807  0.2646251372295507  1.0000
  H   H535      1.0  0.3407617539064925  0.8740862598794826  0.3374496428261072  1.0000
  H   H536      1.0  0.3043086311762288  0.8616657491262238  0.3726999186905293  1.0000
  C   C843      1.0  0.34712310121597234  0.8911685344926911  0.2471312893740566  1.0000
  C   C844      1.0  0.36661526984787196  0.8790391981022674  0.26096164897702606  1.0000
  C   C845      1.0  0.3881950068532591  0.8900790546876297  0.2567856343131826  1.0000
  C   C846      1.0  0.38926863396791495  0.9129257798564449  0.24279547300435217  1.0000
  C   C847      1.0  0.3692956328197798  0.9251239568066125  0.23230285202272938  1.0000
  C   C848      1.0  0.3484432122946539  0.9139448710603004  0.2344140784059301  1.0000
  C   C849      1.0  0.36639014517787044  0.8516614159354795  0.2711650561875716  1.0000
  C   C850      1.0  0.3685719265628423  0.8430953242880057  0.2195098376813099  1.0000
  C   C851      1.0  0.3903627864602753  0.8399848657594554  0.20198116124889734  1.0000
  C   C852      1.0  0.39320604289090466  0.8310721747111196  0.1590238676430515  1.0000
  C   C853      1.0  0.3745084075824124  0.826991859596507  0.13081135451260137  1.0000
  C   C854      1.0  0.35284480121329864  0.8309578671538315  0.14671606318203445  1.0000
  C   C855      1.0  0.34960543588003873  0.8393610044923663  0.19057787541784932  1.0000
  C   C856      1.0  0.3932632289401234  0.8547643498828918  0.3425936870543004  1.0000
  C   C857      1.0  0.4078326009049302  0.8448621520838463  0.37569449339223887  1.0000
  C   C858      1.0  0.4140034937159436  0.8218232546426744  0.3736423390071449  1.0000
  C   C859      1.0  0.4050017624882486  0.8086644485256855  0.3369746766447984  1.0000
  C   C860      1.0  0.39065661439382376  0.8187885170369811  0.3047435603599105  1.0000
  C   C861      1.0  0.3849927305398523  0.8418931295185773  0.3062138726364853  1.0000
  C   C862      1.0  0.43037799783917147  0.8095226221046472  0.41071428602705395  1.0000
  C   C863      1.0  0.49345801534277156  0.7914804934719993  0.3390920492474553  1.0000
  C   C864      1.0  0.48595923248415823  0.8143142947383395  0.34165468130404936  1.0000
  C   C865      1.0  0.465012281238348  0.8193550633186132  0.36220695625227006  1.0000
  C   C866      1.0  0.4516235594903693  0.8016701307969987  0.38035196191348375  1.0000
  C   C867      1.0  0.45797791897793994  0.7789119251728637  0.3721262715412851  1.0000
  C   C868      1.0  0.47879805908806466  0.7738057154673526  0.3524993440778571  1.0000
  C   C869      1.0  0.4178538129861603  0.7886053499157739  0.43757326505059685  1.0000
  C   C870      1.0  0.39384672391116765  0.7875966253361735  0.4414829435380055  1.0000
  C   C871      1.0  0.3836042534208739  0.7727358879105343  0.4719750211734286  1.0000
  C   C872      1.0  0.39717508258020845  0.7578111166315852  0.49860522425054665  1.0000
  C   C873      1.0  0.42084040676556345  0.7588656988219237  0.4954194338324224  1.0000
  C   C874      1.0  0.4308598451443925  0.7743424596194407  0.46650147129105646  1.0000
  C   C875      1.0  0.46090838560114233  0.8244908151824876  0.46911361455993644  1.0000
  C   C876      1.0  0.4669867550497628  0.8289202530713574  0.5136327308209271  1.0000
  C   C877      1.0  0.4504148103134296  0.8347297395233026  0.5437901809526243  1.0000
  C   C878      1.0  0.42798810203903975  0.8378491800647015  0.5289026716031904  1.0000
  C   C879      1.0  0.4217223209936934  0.8335974840329581  0.4845133088640527  1.0000
  C   C880      1.0  0.43803375053207205  0.8255668179406007  0.4534783151766663  1.0000
  H   H537      1.0  0.3305263450258031  0.8819455916471766  0.24753386674843691  1.0000
  H   H538      1.0  0.4040234593718384  0.8807919234032892  0.2640525144502159  1.0000
  H   H539      1.0  0.40567062738089915  0.9217348082642138  0.23874613875263348  1.0000
  H   H540      1.0  0.33280850654351407  0.9223769285682252  0.2228151379221934  1.0000
  H   H541      1.0  0.40607870166304627  0.8428489263568475  0.2228257230779235  1.0000
  H   H542      1.0  0.4100803200884366  0.828134010301852  0.14571320504076637  1.0000
  H   H543      1.0  0.3379524044709638  0.8276132588642942  0.12602310809959424  1.0000
  H   H544      1.0  0.3317389717344065  0.8430533076519959  0.19957867235480062  1.0000
  H   H545      1.0  0.3880551828618741  0.872902782780945  0.34716237685006696  1.0000
  H   H546      1.0  0.41441761169314684  0.8553562975581794  0.40351979469694915  1.0000
  H   H547      1.0  0.4074065862180443  0.7900491957818622  0.33504851975855626  1.0000
  H   H548      1.0  0.38387125231080366  0.8091309203038924  0.27767492696158436  1.0000
  H   H549      1.0  0.4962019797210062  0.8281263578164474  0.32830919012484583  1.0000
  H   H550      1.0  0.4607057211031716  0.8370323577384803  0.36724344163997996  1.0000
  H   H551      1.0  0.44716835650062037  0.7645629280089882  0.3826158194131798  1.0000
  H   H552      1.0  0.4840219321130797  0.7559597899312004  0.3478384609902477  1.0000
  H   H553      1.0  0.3821995333433459  0.7998267447895813  0.42299989580670144  1.0000
  H   H554      1.0  0.36470024835528014  0.7727100978500367  0.47457692074321495  1.0000
  H   H555      1.0  0.4313821820076882  0.7464136299265315  0.5151180671895059  1.0000
  H   H556      1.0  0.44978373342032296  0.7748996666768423  0.4663887906010263  1.0000
  H   H557      1.0  0.47474263971541464  0.8159842104580454  0.4505622755013414  1.0000
  H   H558      1.0  0.48425060226749295  0.8270604197892765  0.5269188085453874  1.0000
  H   H559      1.0  0.41522213566262406  0.8423415930356657  0.5541158296390207  1.0000
  H   H560      1.0  0.40358189807500633  0.8340432945349515  0.4735593799665793  1.0000
  C   C881      1.0  0.02814207118553247  0.7398283809121393  0.566985330267006  1.0000
  C   C882      1.0  0.050085153522112145  0.7488729139132498  0.5699833195350801  1.0000
  C   C883      1.0  0.0689029381782417  0.7347025514683027  0.5642502626090022  1.0000
  C   C884      1.0  0.06631056692416949  0.7111495899339286  0.5596303543177674  1.0000
  C   C885      1.0  0.04388696301628157  0.7023401338930697  0.5565913902533187  1.0000
  C   C886      1.0  0.025082674630732216  0.7167708623608088  0.5590532926021585  1.0000
  H   H561      1.0  0.05263885152564529  0.7673349325657247  0.5741217739689135  1.0000
  H   H562      1.0  0.08599722831219556  0.7418352869279117  0.5677843387963105  1.0000
  H   H563      1.0  0.040951988090133236  0.6834516019341081  0.5548465468410342  1.0000
  H   H564      1.0  0.00818042690065579  0.7100239069347473  0.5588279312220983  1.0000
  C   C887      1.0  0.07007261430718578  0.6715396136486906  0.6381312350387501  1.0000
  C   C888      1.0  0.08341996458807248  0.6895579788743582  0.6231686052292962  1.0000
  C   C889      1.0  0.09237736768654961  0.7049410600893574  0.6558596636034888  1.0000
  C   C890      1.0  0.08764725041803084  0.7019207747702269  0.7011812029601484  1.0000
  C   C891      1.0  0.07334516241739675  0.6841729373147756  0.7146960566310336  1.0000
  C   C892      1.0  0.0655942095399883  0.6688151363685465  0.6831318051571421  1.0000
  C   C893      1.0  0.08727694831139789  0.693858856793603  0.569802347517759  1.0000
  C   C894      1.0  0.11276973854013338  0.7022552879103777  0.5572060121989375  1.0000
  C   C895      1.0  0.1166807984055752  0.714959608416492  0.5175082636446903  1.0000
  C   C896      1.0  0.1389753617694926  0.7202821715342647  0.5048777826622233  1.0000
  C   C897      1.0  0.15781252682674032  0.7126119987515229  0.530616783918194  1.0000
  C   C898      1.0  0.15376980923854547  0.7000928753718657  0.5688735854666016  1.0000
  C   C899      1.0  0.1316721384439056  0.6945110577651401  0.5818011337227843  1.0000
  C   C900      1.0  0.09595982230208554  0.6511726492490452  0.5492090977731636  1.0000
  C   C901      1.0  0.09616858813392612  0.6328196398489573  0.5201579671435803  1.0000
  C   C902      1.0  0.08708850335993454  0.6344910712317392  0.47590177249265997  1.0000
  C   C903      1.0  0.0786093827593737  0.6555301195486438  0.46198058542439346  1.0000
  C   C904      1.0  0.07886391319321111  0.674508215724851  0.4908678168684785  1.0000
  C   C905      1.0  0.0859036713894152  0.6717856106926707  0.5360322861723689  1.0000
  C   C906      1.0  0.08846008199045724  0.6128341706189137  0.4422751229345809  1.0000
  C   C907      1.0  0.06282588362092786  0.5480039075842086  0.49785743421671036  1.0000
  C   C908      1.0  0.05432072168095193  0.5688626812203332  0.513390296609044  1.0000
  C   C909      1.0  0.06367698361944213  0.5889914354680946  0.49795987120764684  1.0000
  C   C910      1.0  0.08180741282942988  0.5893482811955583  0.4671673117321435  1.0000
  C   C911      1.0  0.08991148224079072  0.5681015415288736  0.45213639059539856  1.0000
  C   C912      1.0  0.07988514414661795  0.5474909778365037  0.46613611269004973  1.0000
  C   C913      1.0  0.11414604967889784  0.6166920884196396  0.4252774115718557  1.0000
  C   C914      1.0  0.1180428377545097  0.632529246765616  0.38967714265506725  1.0000
  C   C915      1.0  0.1393559610378293  0.641418710972267  0.3816665699638352  1.0000
  C   C916      1.0  0.15748623126733452  0.6352715631219057  0.4107279442925122  1.0000
  C   C917      1.0  0.15421768814109618  0.6191526914798547  0.44466873395612977  1.0000
  C   C918      1.0  0.13291583448600247  0.6097189615339055  0.45154908518069614  1.0000
  C   C919      1.0  0.07591357222006884  0.5991874489739719  0.36157526147482855  1.0000
  C   C920      1.0  0.05878867400964217  0.5927401645460513  0.3309291868963643  1.0000
  C   C921      1.0  0.03629415651004719  0.5998604583241064  0.3363327381682632  1.0000
  C   C922      1.0  0.03101599522686671  0.6135345190297707  0.37269308955780023  1.0000
  C   C923      1.0  0.047488259363605144  0.6188249992774127  0.405005131065528  1.0000
  C   C924      1.0  0.07019466974118485  0.6113591970197033  0.40093155339262093  1.0000
  H   H565      1.0  0.06233988970283288  0.6596012355797289  0.6140653713014084  1.0000
  H   H566      1.0  0.10202449580152757  0.7206647795863879  0.6461691242608986  1.0000
  H   H567      1.0  0.09301318943290604  0.7151772061101448  0.7248680498310253  1.0000
  H   H568      1.0  0.05468610306347886  0.6547828594918685  0.693317456622592  1.0000
  H   H569      1.0  0.10186252123854876  0.7204844025716517  0.4964062435117771  1.0000
  H   H570      1.0  0.14140630636442747  0.7304320330203915  0.4744164361240812  1.0000
  H   H571      1.0  0.16745892206189575  0.6933996980234225  0.5902248689441268  1.0000
  H   H572      1.0  0.128927214845686  0.683669611925443  0.6120268751817726  1.0000
  H   H573      1.0  0.1031790623190016  0.6491009277497626  0.5828801366939819  1.0000
  H   H574      1.0  0.10397482309498193  0.6168525450984443  0.5325869887105389  1.0000
  H   H575      1.0  0.07345066611945963  0.6574768130515728  0.42658177592311347  1.0000
  H   H576      1.0  0.07282518427677162  0.6910971455850674  0.47856513425700825  1.0000
  H   H577      1.0  0.039809389311707744  0.5698495133579348  0.5366264207198004  1.0000
  H   H578      1.0  0.05591529477818466  0.6049095778355844  0.5115020414094484  1.0000
  H   H579      1.0  0.10486335428406504  0.5674708030160808  0.42992463639400696  1.0000
  H   H580      1.0  0.08602796055269023  0.5308732540059312  0.4532495392302415  1.0000
  H   H581      1.0  0.1038563706716908  0.6396395810010309  0.3694868117414887  1.0000
  H   H582      1.0  0.14179113712693855  0.6539696041375443  0.35485880943576054  1.0000
  H   H583      1.0  0.16832847497225953  0.6146730724107785  0.4682599729687992  1.0000
  H   H584      1.0  0.13068936735371048  0.5987154886549091  0.48169629161329974  1.0000
  H   H585      1.0  0.09294680714010348  0.5916152350097633  0.3572797369882258  1.0000
  H   H586      1.0  0.06381219280561747  0.5804954504720633  0.3049016547825891  1.0000
  H   H587      1.0  0.013622736031393634  0.6201267288491242  0.3776032359900218  1.0000
  H   H588      1.0  0.042562337041206655  0.6283016977451025  0.43453771555251275  1.0000
  C   C925      1.0  0.0197479012253019  0.494837261880482  0.5190448185087373  1.0000
  C   C926      1.0  0.031660373018533416  0.4793598448845541  0.547139870556247  1.0000
  C   C927      1.0  0.01993640397006491  0.4615812071871295  0.5678936049199761  1.0000
  C   C928      1.0  0.9964437285068217  0.45755312740316556  0.559323043344958  1.0000
  C   C929      1.0  0.9846679399315871  0.4729625203711818  0.5310982377755955  1.0000
  C   C930      1.0  0.9961780107665943  0.491674647778987  0.512550313283365  1.0000
  H   H589      1.0  0.050361363345234146  0.4801808181353363  0.5523880590585588  1.0000
  H   H590      1.0  0.03009549415034618  0.4497719945622512  0.5878722327189526  1.0000
  H   H591      1.0  0.9666080769990627  0.470196165147848  0.5213974547339116  1.0000
  H   H592      1.0  0.9856159587663444  0.502680002546556  0.4913151250622344  1.0000
  C   C931      1.0  0.9438015218809974  0.44799877939199734  0.596214018347546  1.0000
  C   C932      1.0  0.9583017939825447  0.4305514845077633  0.5804011615133193  1.0000
  C   C933      1.0  0.947945064541838  0.4088876547738304  0.5730291127322579  1.0000
  C   C934      1.0  0.9245353282861897  0.40529547321427545  0.5782021807745497  1.0000
  C   C935      1.0  0.9108509794069122  0.42343219053698267  0.5915394769944783  1.0000
  C   C936      1.0  0.9207061036786894  0.44460970331685845  0.6005641758959814  1.0000
  C   C937      1.0  0.9853456272120571  0.43312738170267273  0.5783933964909644  1.0000
  C   C938      1.0  0.9917810889175492  0.4292834457783991  0.6303972422230465  1.0000
  C   C939      1.0  0.9953075598881839  0.4073032623081531  0.6499968531555581  1.0000
  C   C940      1.0  0.004894987328105005  0.40494594939702755  0.6924330839341738  1.0000
  C   C941      1.0  0.011657957399513696  0.4244285846342993  0.7163111465214653  1.0000
  C   C942      1.0  0.006157913344905452  0.44624062814370175  0.6998870823079844  1.0000
  C   C943      1.0  0.99517345115372  0.44858160376111395  0.6588030198097301  1.0000
  C   C944      1.0  0.9885309905488084  0.4179446829159872  0.4956004058497435  1.0000
  C   C945      1.0  0.0011259773169802756  0.40975695912358173  0.45979867751744663  1.0000
  C   C946      1.0  0.023337664545491243  0.401521910364281  0.46729706525399634  1.0000
  C   C947      1.0  0.030184087655755087  0.396181337538676  0.5119425204704753  1.0000
  C   C948      1.0  0.017430483044825307  0.40459347931751116  0.5474403523963272  1.0000
  C   C949      1.0  0.9971217820380391  0.41650867429095956  0.540249275632587  1.0000
  C   C950      1.0  0.04072902999896924  0.39922618615979144  0.4253525320318758  1.0000
  C   C951      1.0  0.0028533992204373693  0.3442946842493849  0.35179594340676  1.0000
  C   C952      1.0  0.0018315329447269324  0.36683143860630874  0.3378378790217564  1.0000
  C   C953      1.0  0.014450260099022172  0.38384285777434807  0.35959139841702553  1.0000
  C   C954      1.0  0.028239703379515424  0.3789124387555775  0.3966155415078309  1.0000
  C   C955      1.0  0.02873714015022033  0.3559709623054359  0.41190255512191704  1.0000
  C   C956      1.0  0.016360497450043088  0.33884910049483347  0.38924007816040496  1.0000
  C   C957      1.0  0.06725070907909628  0.3938644195676812  0.4390517722864466  1.0000
  C   C958      1.0  0.07893066995439023  0.4075866736763015  0.47032920018571595  1.0000
  C   C959      1.0  0.10188354974571515  0.404430190103498  0.48025875917382455  1.0000
  C   C960      1.0  0.11510728207978393  0.3882752348704487  0.45584460966729884  1.0000
  C   C961      1.0  0.10423835503444052  0.375588944988242  0.42205747549008593  1.0000
  C   C962      1.0  0.08071999664508861  0.3779549906119512  0.41459664798354623  1.0000
  C   C963      1.0  0.05309808295738453  0.42294969708554403  0.3555622101068576  1.0000
  C   C964      1.0  0.05633107171178156  0.44360028044142735  0.3327812476924957  1.0000
  C   C965      1.0  0.050676387302290515  0.4644344966353975  0.3524617838478471  1.0000
  C   C966      1.0  0.042886615156019055  0.46489952038826493  0.39617847701316866  1.0000
  C   C967      1.0  0.03932469101847061  0.44443369220558576  0.41914826494749013  1.0000
  C   C968      1.0  0.043919996961920005  0.42310103439243113  0.3990193962284735  1.0000
  H   H593      1.0  0.9507295619072845  0.4648573380896728  0.6031763191648615  1.0000
  H   H594      1.0  0.9577390526106231  0.39421266361683055  0.5612727607391155  1.0000
  H   H595      1.0  0.9165535614033544  0.38887843575776265  0.570195022649682  1.0000
  H   H596      1.0  0.9103656126301989  0.45862363683011215  0.6132390462411875  1.0000
  H   H597      1.0  0.9915072842629978  0.3915060735570571  0.6308889397795416  1.0000
  H   H598      1.0  0.007609636919057694  0.38760988792081535  0.7047289374129149  1.0000
  H   H599      1.0  0.012174656025176978  0.46175220117952626  0.7168096732106894  1.0000
  H   H600      1.0  0.9912826373955118  0.4661936065890551  0.6474803177448855  1.0000
  H   H601      1.0  0.9729908442713525  0.42784736874384655  0.4871356958320264  1.0000
  H   H602      1.0  0.9951204878949826  0.41332952070369167  0.4256530138719561  1.0000
  H   H603      1.0  0.046057108790010126  0.38675860964123643  0.519516028667045  1.0000
  H   H604      1.0  0.024478291285511267  0.40406108087616804  0.5808484697070752  1.0000
  H   H605      1.0  0.9913678959999994  0.37156833108453746  0.30928117760175977  1.0000
  H   H606      1.0  0.011764800674346931  0.40138195394178666  0.34638385571894975  1.0000
  H   H607      1.0  0.03781439768900308  0.3513812239026913  0.44372631363951426  1.0000
  H   H608      1.0  0.015660630995177227  0.32190515084765636  0.40404905248345424  1.0000
  H   H609      1.0  0.07017566190988161  0.4212076418687791  0.48815665117502655  1.0000
  H   H610      1.0  0.11007661413938367  0.41427550587466294  0.5068650602863909  1.0000
  H   H611      1.0  0.11419506025081667  0.36358690651504216  0.4011500856399521  1.0000
  H   H612      1.0  0.07320833158238367  0.36793283318667486  0.38680549234248146  1.0000
  H   H613      1.0  0.0591945438890247  0.4073046123364344  0.33937682408225867  1.0000
  H   H614      1.0  0.06455001228867147  0.4435458640656018  0.29948410378859563  1.0000
  H   H615      1.0  0.03950964788618529  0.48134532269140096  0.4140503173652184  1.0000
  H   H616      1.0  0.03306060569439073  0.4459274385457557  0.45345782777847904  1.0000
  C   C969      1.0  0.7892697627981904  0.2898690234212119  0.7182164745528836  1.0000
  C   C970      1.0  0.8057831416353758  0.2754136063627862  0.7000817125907637  1.0000
  C   C971      1.0  0.8264800437740426  0.2843141702158673  0.6863346684070892  1.0000
  C   C972      1.0  0.8322720230970546  0.3075658768306368  0.69318087396801  1.0000
  C   C973      1.0  0.8155238436045448  0.32201303538931136  0.7118790393802805  1.0000
  C   C974      1.0  0.7940326129644202  0.3133295911278533  0.7249056100610353  1.0000
  H   H617      1.0  0.8034407113986972  0.25675173116949607  0.6964725159434352  1.0000
  H   H618      1.0  0.8392767095462131  0.27179801026844425  0.6737076019909867  1.0000
  H   H619      1.0  0.8207929437917638  0.3394953079390289  0.7213237299446233  1.0000
  H   H620      1.0  0.7820268862946473  0.3246127038077707  0.7418657611937505  1.0000
  C   C975      1.0  0.8463948535232384  0.35633921408132135  0.6509426880385382  1.0000
  C   C976      1.0  0.862367654986693  0.3437972454567214  0.6758382914024653  1.0000
  C   C977      1.0  0.8829514259374507  0.3549299371873562  0.6876185453601595  1.0000
  C   C978      1.0  0.8868675537503762  0.37799099203041847  0.6759612157915891  1.0000
  C   C979      1.0  0.8700172739743262  0.39004771544132  0.6518782792224247  1.0000
  C   C980      1.0  0.8499318091752424  0.378882366085474  0.6384556188433823  1.0000
  C   C981      1.0  0.8586392453700179  0.31625558251781205  0.6858224834524068  1.0000
  C   C982      1.0  0.870736527767505  0.3060774366119376  0.64150141204056  1.0000
  C   C983      1.0  0.8949658773298167  0.3043649217226157  0.636420537290111  1.0000
  C   C984      1.0  0.9050076624037655  0.29523990926760213  0.5980169093880279  1.0000
  C   C985      1.0  0.8910326938243682  0.28729729348775335  0.5638336855125272  1.0000
  C   C986      1.0  0.8674971348504841  0.2883366023797114  0.5677023892035614  1.0000
  C   C987      1.0  0.8577014867331684  0.2992778355777781  0.6036475293231692  1.0000
  C   C988      1.0  0.865975289808633  0.3196840667606504  0.7723885699264544  1.0000
  C   C989      1.0  0.8697180548615173  0.30952172013868606  0.8134009265310531  1.0000
  C   C990      1.0  0.8773009264337853  0.286515299991611  0.8171330475675053  1.0000
  C   C991      1.0  0.8829698909024634  0.27475983208642685  0.7778382178442748  1.0000
  C   C992      1.0  0.8780271878152296  0.28438741307247645  0.736689278585094  1.0000
  C   C993      1.0  0.8691590252235987  0.3069090280531358  0.7321376616211502  1.0000
  C   C994      1.0  0.8805240519347678  0.2744086249245874  0.8659340300496403  1.0000
  C   C995      1.0  0.9464338728006161  0.3056889624382704  0.9099990089841459  1.0000
  C   C996      1.0  0.9256365157300546  0.31643000689248757  0.9176647104725585  1.0000
  C   C997      1.0  0.9053827355251888  0.3071424507082595  0.9025586688757935  1.0000
  C   C998      1.0  0.9046181840610623  0.2860241934433041  0.8804834973289839  1.0000
  C   C999      1.0  0.9260493817367932  0.27570303643606797  0.8708510056145911  1.0000
  C   C1000     1.0  0.9465455789624104  0.2850360717597514  0.8862063105559681  1.0000
  C   C1001     1.0  0.8792271680705311  0.2467882159357808  0.8688944590877044  1.0000
  C   C1002     1.0  0.8647886926281065  0.23398965025043902  0.8406355078546964  1.0000
  C   C1003     1.0  0.8647576821964393  0.2099019507317194  0.8424657154260946  1.0000
  C   C1004     1.0  0.8779369592677494  0.19815448459365845  0.8743577652709829  1.0000
  C   C1005     1.0  0.8907438762954372  0.2110450796729441  0.9066424902477942  1.0000
  C   C1006     1.0  0.8915862053630446  0.23501831214779254  0.9032245093168806  1.0000
  C   C1007     1.0  0.864442432657874  0.2806958573716537  0.9470265666413158  1.0000
  C   C1008     1.0  0.848734822429339  0.28955111826062757  0.9769313388620365  1.0000
  C   C1009     1.0  0.8272755281927515  0.2963240398833223  0.9616716417788667  1.0000
  C   C1010     1.0  0.8215914336305684  0.29432976286955614  0.9155579230256318  1.0000
  C   C1011     1.0  0.8376408948320685  0.2858192395909336  0.885540470114881  1.0000
  C   C1012     1.0  0.8602780954735315  0.28053499985293345  0.900366517269753  1.0000
  H   H621      1.0  0.8309418113282356  0.34739498174114264  0.6383190361888003  1.0000
  H   H622      1.0  0.8969934341996701  0.3450655904508337  0.7026665393287272  1.0000
  H   H623      1.0  0.9036051544051436  0.3862695090391591  0.6858463854169586  1.0000
  H   H624      1.0  0.836716658325434  0.38791797390097515  0.6193408763346367  1.0000
  H   H625      1.0  0.9047956683962631  0.31023679095324624  0.6661853122898852  1.0000
  H   H626      1.0  0.9234789263266405  0.2948873314222625  0.5970335142750377  1.0000
  H   H627      1.0  0.856369661917338  0.28243478200196326  0.5396892867488009  1.0000
  H   H628      1.0  0.8392366641075609  0.30162904522757455  0.6016056186371689  1.0000
  H   H629      1.0  0.8584742274838464  0.3370533182831593  0.7711388386370295  1.0000
  H   H630      1.0  0.8666883135033722  0.3199185711417358  0.8437017884500614  1.0000
  H   H631      1.0  0.8897518717283545  0.25713435991618194  0.7788216129572649  1.0000
  H   H632      1.0  0.8795308456106511  0.27433874194324265  0.7062245174805875  1.0000
  H   H633      1.0  0.9246489379858409  0.3327139373567781  0.935652646081003  1.0000
  H   H634      1.0  0.8893549036544315  0.31616143975096567  0.9106511911597748  1.0000
  H   H635      1.0  0.9268337384330719  0.2601781878012226  0.8503840948254839  1.0000
  H   H636      1.0  0.9627474202030688  0.27685450007665074  0.8777757462018965  1.0000
  H   H637      1.0  0.8529834249106814  0.24275984394416902  0.8184613138833148  1.0000
  H   H638      1.0  0.8551431454427332  0.20008938243866015  0.8176145014249067  1.0000
  H   H639      1.0  0.9020294685756228  0.20236322156197017  0.9303942138795974  1.0000
  H   H640      1.0  0.9022235928266662  0.24443889491005066  0.9279049949998411  1.0000
  H   H641      1.0  0.8813214680164966  0.27596203713672085  0.9597799720129065  1.0000
  H   H642      1.0  0.852819351589289  0.29034453813515415  0.013146229724443792  1.0000
  H   H643      1.0  0.804534917811131  0.2984710684975717  0.9023196492302751  1.0000
  H   H644      1.0  0.8332925483345622  0.2839186468172956  0.8498958118353535  1.0000
  C   C1013     1.0  0.5622840857346495  0.272731801039062  0.7985953667743684  1.0000
  C   C1014     1.0  0.57157673795343  0.25624797611645284  0.7701691017894975  1.0000
  C   C1015     1.0  0.5941476335260604  0.2576363196246189  0.7574737440461041  1.0000
  C   C1016     1.0  0.608060046441976  0.2762746559000773  0.7708759170269592  1.0000
  C   C1017     1.0  0.5983544670678596  0.2924262172550062  0.7997699776037733  1.0000
  C   C1018     1.0  0.5757006865897897  0.2909670228116501  0.8131584923191701  1.0000
  H   H645      1.0  0.5615684446054868  0.2410602768281127  0.7575454499397597  1.0000
  H   H646      1.0  0.6001866595411629  0.2437839950878084  0.7356171047466257  1.0000
  H   H647      1.0  0.6084710370389542  0.30657384568661206  0.814121400033973  1.0000
  H   H648      1.0  0.5691367993955433  0.3036030828675809  0.8363707144653746  1.0000
  C   C1019     1.0  0.6284173867918643  0.3169293684943736  0.7161540764686961  1.0000
  C   C1020     1.0  0.6431866058524747  0.3020339684029508  0.7403053043651515  1.0000
  C   C1021     1.0  0.6667516254150511  0.3047396042660415  0.7350127265001005  1.0000
  C   C1022     1.0  0.6748415807814597  0.3175552119915456  0.6994670906451448  1.0000
  C   C1023     1.0  0.6596748382969113  0.32930303314429915  0.6702042569009594  1.0000
  C   C1024     1.0  0.6363340936151825  0.33045099943979206  0.6814791550367003  1.0000
  C   C1025     1.0  0.6344903331348035  0.2772363805372978  0.7560737718366392  1.0000
  C   C1026     1.0  0.6395793778641659  0.26300233126758854  0.709785910198812  1.0000
  C   C1027     1.0  0.6593369538618984  0.24893287919222282  0.7061118367905573  1.0000
  C   C1028     1.0  0.6613374418141671  0.23294410139573962  0.6716930078359027  1.0000
  C   C1029     1.0  0.6450474274621255  0.2325893959635469  0.637465394597663  1.0000
  C   C1030     1.0  0.6284461587862467  0.24987626355343434  0.635549822867151  1.0000
  C   C1031     1.0  0.625591540355316  0.2647847704685616  0.6715154503849462  1.0000
  C   C1032     1.0  0.6579933779283359  0.28107331787635065  0.8350697646804814  1.0000
  C   C1033     1.0  0.6710395311890789  0.2706428315948169  0.8696046888915306  1.0000
  C   C1034     1.0  0.6745969615843328  0.24678984585321112  0.8687544618667579  1.0000
  C   C1035     1.0  0.6620627179199339  0.23356777409977544  0.8379243421612445  1.0000
  C   C1036     1.0  0.6473633692315592  0.24364957888421085  0.8072922673048749  1.0000
  C   C1037     1.0  0.6471636774415412  0.26748000297705116  0.8016889639006499  1.0000
  C   C1038     1.0  0.6960800660326256  0.2352953792727608  0.8968734158788194  1.0000
  C   C1039     1.0  0.7518496247073033  0.2555374611182605  0.8051615778933963  1.0000
  C   C1040     1.0  0.7454854458010347  0.2697161403104244  0.8409803790575159  1.0000
  C   C1041     1.0  0.7288469600435267  0.26313198794553877  0.870198823438962  1.0000
  C   C1042     1.0  0.7163173277943933  0.24288083257295093  0.8631716458607201  1.0000
  C   C1043     1.0  0.7210440149950933  0.22959131255621615  0.8241977853757572  1.0000
  C   C1044     1.0  0.7388491014558092  0.23595245358127384  0.7948632457379163  1.0000
  C   C1045     1.0  0.6929127624719447  0.20834919398879628  0.9066902941768978  1.0000
  C   C1046     1.0  0.6718115742158258  0.19926273052299226  0.9209973272443583  1.0000
  C   C1047     1.0  0.6687547382828493  0.17646470901266095  0.9305444547996375  1.0000
  C   C1048     1.0  0.6870949826234524  0.16091853238967163  0.9283215720963162  1.0000
  C   C1049     1.0  0.7088907245936626  0.16951098276979654  0.919993444733181  1.0000
  C   C1050     1.0  0.7118184508221028  0.1922542608734478  0.9073151598216103  1.0000
  C   C1051     1.0  0.7225883353089588  0.2406390170177175  0.9674559172004129  1.0000
  C   C1052     1.0  0.7276183781828465  0.24726765767812975  0.011500408736731194  1.0000
  C   C1053     1.0  0.7106276836175888  0.2570620147753102  0.03726247982305093  1.0000
  C   C1054     1.0  0.688217555906371  0.2593882570386784  0.019473421197953256  1.0000
  C   C1055     1.0  0.683528242655915  0.2519903020082069  0.9759957476781501  1.0000
  C   C1056     1.0  0.7008709958438686  0.24373752959934095  0.9481636172407106  1.0000
  H   H649      1.0  0.6096782010936146  0.31613723088340406  0.7208593489190447  1.0000
  H   H650      1.0  0.6788799751694411  0.2932659466687393  0.7520992165883039  1.0000
  H   H651      1.0  0.69250367575657  0.31603498086924453  0.688728279428638  1.0000
  H   H652      1.0  0.6239246601990398  0.34045686624341637  0.6604488407974427  1.0000
  H   H653      1.0  0.6720968407259698  0.24850992587517678  0.7326259446112807  1.0000
  H   H654      1.0  0.6751744229566036  0.22033722906959272  0.671979831410525  1.0000
  H   H655      1.0  0.6154554973370966  0.2501996434030558  0.608653283613598  1.0000
  H   H656      1.0  0.6115459398361771  0.2772895746034335  0.6720856829678259  1.0000
  H   H657      1.0  0.6564566258504492  0.2997143767452798  0.8344141679384881  1.0000
  H   H658      1.0  0.6795677891647632  0.28177346132727726  0.8940871297253473  1.0000
  H   H659      1.0  0.6636151345800365  0.21486711474565498  0.8359097480061605  1.0000
  H   H660      1.0  0.6377341879440025  0.23266603737549335  0.7838102944158709  1.0000
  H   H661      1.0  0.7545794565504832  0.2862642370003854  0.8473587890264934  1.0000
  H   H662      1.0  0.7236472371766586  0.2747819745001099  0.8973343823380334  1.0000
  H   H663      1.0  0.7106204418093447  0.21466617158014867  0.817604257725813  1.0000
  H   H664      1.0  0.743104088675495  0.22614897654593147  0.7639409327405601  1.0000
  H   H665      1.0  0.6568105296238574  0.21020475834000868  0.9229948485676196  1.0000
  H   H666      1.0  0.6515541417946591  0.16971223486796838  0.9356287441164511  1.0000
  H   H667      1.0  0.7234827892653506  0.15789821697941045  0.9222812041974289  1.0000
  H   H668      1.0  0.7289444821207295  0.1988321409409626  0.9008069963307799  1.0000
  H   H669      1.0  0.7366360460863318  0.23359853567543853  0.9485733652044566  1.0000
  H   H670      1.0  0.7448749494362854  0.24430957436354447  0.025626469786870443  1.0000
  H   H671      1.0  0.6745375351652725  0.26713090268582074  0.0406640708354147  1.0000
  H   H672      1.0  0.6659713344735367  0.2534775464484967  0.9628394234755425  1.0000
  C   C1057     1.0  0.031205970153177276  0.5646313368702207  0.9509806344914636  1.0000
  C   C1058     1.0  0.043674639902933465  0.5810805016087423  0.9272050088951086  1.0000
  C   C1059     1.0  0.03476778798315694  0.603128204558896  0.9223904703210944  1.0000
  C   C1060     1.0  0.012726173662960694  0.6088797032593521  0.9366121392294412  1.0000
  C   C1061     1.0  0.9999536482816235  0.5923693135638389  0.9578644002823945  1.0000
  C   C1062     1.0  0.00878298184547699  0.5700736985251147  0.9640959838976966  1.0000
  H   H673      1.0  0.060057312569062875  0.5757867916987172  0.9126828581466814  1.0000
  H   H674      1.0  0.04519666265111094  0.6160561350203219  0.9053995880910982  1.0000
  H   H675      1.0  0.983090936795384  0.5962231530307454  0.9706963406803699  1.0000
  H   H676      1.0  0.9980259561124196  0.5577171689340864  0.9813019838086593  1.0000
  C   C1063     1.0  0.9658784958700999  0.6218671841269486  0.8916525439074238  1.0000
  C   C1064     1.0  0.9761037899799232  0.6381336607414761  0.9205124588205925  1.0000
  C   C1065     1.0  0.9623977952131774  0.65650706965372  0.935833618098324  1.0000
  C   C1066     1.0  0.938986376593855  0.6569708974262716  0.925634308367416  1.0000
  C   C1067     1.0  0.9285057043872307  0.639432299716275  0.900154814155151  1.0000
  C   C1068     1.0  0.9425649286260962  0.6225479691709688  0.8827132091650345  1.0000
  C   C1069     1.0  0.003144783425675035  0.6351401136281766  0.9316610180008451  1.0000
  C   C1070     1.0  0.012516836192758785  0.6502581218612971  0.8896481934514335  1.0000
  C   C1071     1.0  0.015869318252572207  0.6741905638840915  0.8918608324556613  1.0000
  C   C1072     1.0  0.024824252410153846  0.6861705519332048  0.8545396220911401  1.0000
  C   C1073     1.0  0.03150384935938133  0.6744467777767277  0.8156784422962073  1.0000
  C   C1074     1.0  0.02750651364787915  0.6511098705879925  0.8133701954337722  1.0000
  C   C1075     1.0  0.01808890172895583  0.639428392235655  0.8493904560134001  1.0000
  C   C1076     1.0  0.9990797266683952  0.6420942387114986  0.019152451959685513  1.0000
  C   C1077     1.0  0.008295350855095585  0.6467986295901271  0.06094591212756317  1.0000
  C   C1078     1.0  0.031432381045626956  0.6524577779575154  0.06637131662419517  1.0000
  C   C1079     1.0  0.04358085763186135  0.6579127319980697  0.027849352490191936  1.0000
  C   C1080     1.0  0.03456576434766223  0.6529729602725248  0.9854404382424927  1.0000
  C   C1081     1.0  0.012097272782333635  0.6444106920514509  0.9800761544837862  1.0000
  C   C1082     1.0  0.04275150619296544  0.65695166492898  0.11527302881408445  1.0000
  C   C1083     1.0  0.012675653215472593  0.7264937186363314  0.14161538394667103  1.0000
  C   C1084     1.0  0.004260751558887943  0.7072577783177888  0.16284203575189027  1.0000
  C   C1085     1.0  0.013109517209853205  0.6858674551540455  0.15557378978831116  1.0000
  C   C1086     1.0  0.031787910900004546  0.6822581034932114  0.1261105209985267  1.0000
  C   C1087     1.0  0.04020009356016301  0.7018086372677866  0.10409681164627894  1.0000
  C   C1088     1.0  0.030094071841520353  0.7233288931960383  0.11050765999571979  1.0000
  C   C1089     1.0  0.07031915894182507  0.6557663064460514  0.1182583841866097  1.0000
  C   C1090     1.0  0.08188383329865351  0.6373293995708678  0.09756338036435079  1.0000
  C   C1091     1.0  0.10545931368948598  0.6348553603255352  0.10063444135262621  1.0000
  C   C1092     1.0  0.1180893807008452  0.6500521412102086  0.12901495114821213  1.0000
  C   C1093     1.0  0.10650468114318953  0.6672506700099495  0.1517259149521008  1.0000
  C   C1094     1.0  0.0831294581036019  0.670594325254255  0.145015609132489  1.0000
  C   C1095     1.0  0.038918437190814004  0.6435990914211295  0.19815513963742012  1.0000
  C   C1096     1.0  0.03401842749443884  0.6276541727583929  0.23184222702015173  1.0000
  C   C1097     1.0  0.026894506989692868  0.6054190007753472  0.2199605604414304  1.0000
  C   C1098     1.0  0.02408115274883782  0.6000637857110622  0.174171566949464  1.0000
  C   C1099     1.0  0.028836872747512787  0.6159449873753906  0.14138797382679208  1.0000
  C   C1100     1.0  0.03618162407204073  0.6384701633238603  0.15222205144486978  1.0000
  H   H677      1.0  0.9757810902218308  0.607756976774611  0.876181143709652  1.0000
  H   H678      1.0  0.9698541701704171  0.6698391845020044  0.9583356104407023  1.0000
  H   H679      1.0  0.9288447505415104  0.6715734186219109  0.9382374728189665  1.0000
  H   H680      1.0  0.9347202577018745  0.6091144396070054  0.8618877689076496  1.0000
  H   H681      1.0  0.01068545531203502  0.6839235129504823  0.9216973133490909  1.0000
  H   H682      1.0  0.026626481985126293  0.7044813376122064  0.8568478689535753  1.0000
  H   H683      1.0  0.031021614298782696  0.6412677254241196  0.7820039888090246  1.0000
  H   H684      1.0  0.014318444148663234  0.6211433966171507  0.8444803095811786  1.0000
  H   H685      1.0  0.9813465865999494  0.6349823920435103  0.017790039980230432  1.0000
  H   H686      1.0  0.99785276099936  0.644342247446918  0.09052800782683391  1.0000
  H   H687      1.0  0.06087176018634743  0.6639160862504242  0.030311254839031854  1.0000
  H   H688      1.0  0.04615034691439874  0.6548044339839961  0.9562458958255983  1.0000
  H   H689      1.0  0.9905508231267772  0.7087954865341491  0.18676209750546574  1.0000
  H   H690      1.0  0.004670243119313966  0.6716308547566656  0.17160688615305122  1.0000
  H   H691      1.0  0.054784416303421735  0.6999634700767384  0.08117482764106114  1.0000
  H   H692      1.0  0.036566916294897604  0.7378517288702424  0.09088483001192929  1.0000
  H   H693      1.0  0.07280740803511944  0.624886838897704  0.0767696955741564  1.0000
  H   H694      1.0  0.11429804804590615  0.6208547744551433  0.08285820885878382  1.0000
  H   H695      1.0  0.11549985009431435  0.6786571461082772  0.1748783821869257  1.0000
  H   H696      1.0  0.07476955069351196  0.6844337439503195  0.16379162665787134  1.0000
  H   H697      1.0  0.04459721188992772  0.6603699341679766  0.20868497939241648  1.0000
  H   H698      1.0  0.037448233616171  0.6333362589360458  0.26603296294165435  1.0000
  H   H699      1.0  0.019120585896405196  0.5825851963939355  0.1649778470129157  1.0000
  H   H700      1.0  0.026887987810255032  0.610692559668193  0.10656383584466564  1.0000
  C   C1101     1.0  0.9910489055308949  0.33516633137093726  0.9906135062847845  1.0000
  C   C1102     1.0  0.014048636417846927  0.32898263037435554  0.9978592161103577  1.0000
  C   C1103     1.0  0.030586920697211584  0.3458202638350706  0.0004201408837694043  1.0000
  C   C1104     1.0  0.02485027854705857  0.36898190503273126  0.9904154614356407  1.0000
  C   C1105     1.0  0.001135585282640239  0.37479023866558764  0.9885511082005969  1.0000
  C   C1106     1.0  0.9844965901458793  0.3579828470678679  0.9889710998634365  1.0000
  H   H701      1.0  0.01850390051605233  0.310585270773892  0.9961826640253639  1.0000
  H   H702      1.0  0.04889363976368736  0.34032635997668503  0.0034761777800409455  1.0000
  H   H703      1.0  0.9958057712874299  0.39242323919774896  0.9795366529981875  1.0000
  H   H704      1.0  0.9664866410278887  0.3629461398825843  0.9844365557313153  1.0000
  C   C1107     1.0  0.026136900022955656  0.38523385032868657  0.894035911229879  1.0000
  C   C1108     1.0  0.036207820745585595  0.3989560700894569  0.9274542722397207  1.0000
  C   C1109     1.0  0.041137347042743334  0.4217357873849121  0.9146086735762871  1.0000
  C   C1110     1.0  0.034778902102621245  0.43044069388360157  0.8738967988117687  1.0000
  C   C1111     1.0  0.02375023722617553  0.4168652638856707  0.843288625919951  1.0000
  C   C1112     1.0  0.019688770202459294  0.3936450868234772  0.8519582099195411  1.0000
  C   C1113     1.0  0.04250150262285404  0.3885878677380369  0.976760610543809  1.0000
  C   C1114     1.0  0.06939349136867845  0.38312557719456  0.9714133996169252  1.0000
  C   C1115     1.0  0.08595386551262675  0.4003092393033476  0.9820327010106727  1.0000
  C   C1116     1.0  0.1091112245437341  0.39561023189283534  0.9794751908036254  1.0000
  C   C1117     1.0  0.11694075465336991  0.37514874091330574  0.9620199275480508  1.0000
  C   C1118     1.0  0.10083901647544642  0.35924174385477514  0.9471665638622624  1.0000
  C   C1119     1.0  0.07725972139331462  0.3632618124917324  0.9500587015730354  1.0000
  C   C1120     1.0  0.029730193991337472  0.4267018026696178  0.020504620240046956  1.0000
  C   C1121     1.0  0.036039594579152734  0.44294517067171235  0.052869779762131745  1.0000
  C   C1122     1.0  0.05254460182607883  0.43781124300038937  0.0858432227746726  1.0000
  C   C1123     1.0  0.054524489259116314  0.4141184673936384  0.09589707197845083  1.0000
  C   C1124     1.0  0.05080763184795536  0.3981875335944007  0.061945697159103134  1.0000
  C   C1125     1.0  0.039979598788128214  0.4048215698678217  0.021303628769351324  1.0000
  C   C1126     1.0  0.06958350662873307  0.45761216014001405  0.10700772947205701  1.0000
  C   C1127     1.0  0.06666994871225221  0.5195849778083731  0.017312000689193585  1.0000
  C   C1128     1.0  0.06247281932733691  0.5213544311157645  0.0629454821906431  1.0000
  C   C1129     1.0  0.06509276610241407  0.502540036317384  0.09083668462618914  1.0000
  C   C1130     1.0  0.06954770158474406  0.4806008273822597  0.07446042434181188  1.0000
  C   C1131     1.0  0.07307745832001382  0.4789019246835656  0.0277571591983492  1.0000
  C   C1132     1.0  0.07187084887481167  0.49802441450621426  0.999665521717204  1.0000
  C   C1133     1.0  0.09544715049727763  0.4457044896761598  0.10834692240023315  1.0000
  C   C1134     1.0  0.10064213903471379  0.4307782339888569  0.14403562858586344  1.0000
  C   C1135     1.0  0.11756664442225867  0.4143720095367313  0.14085256982083078  1.0000
  C   C1136     1.0  0.1324240393001447  0.4148741127479055  0.10439661057308634  1.0000
  C   C1137     1.0  0.13065848107333167  0.43222760073497446  0.07245846408227677  1.0000
  C   C1138     1.0  0.11223686555468534  0.44740496526638224  0.07430574448549782  1.0000
  C   C1139     1.0  0.07678517551500508  0.47522125299287604  0.18594806488415724  1.0000
  C   C1140     1.0  0.0695673768141541  0.4834567822574774  0.22710041870970246  1.0000
  C   C1141     1.0  0.046964954250721815  0.48018273968248265  0.2424847474651782  1.0000
  C   C1142     1.0  0.031949547423886004  0.4682114870203367  0.21432037972046827  1.0000
  C   C1143     1.0  0.03908112086369343  0.4605636469091765  0.1719695131009663  1.0000
  C   C1144     1.0  0.061340087492497836  0.46386607629331844  0.15723975671757462  1.0000
  H   H705      1.0  0.02184278922893168  0.36711618516774375  0.900223105482442  1.0000
  H   H706      1.0  0.04981828781336709  0.43299091416480423  0.9401530445494786  1.0000
  H   H707      1.0  0.038073652994403635  0.44886516368641044  0.8680749631602126  1.0000
  H   H708      1.0  0.011314774703788943  0.38255903875027236  0.8287835480033465  1.0000
  H   H709      1.0  0.08121108190736062  0.4179241285366838  0.9918017753796475  1.0000
  H   H710      1.0  0.12208352634731426  0.40867030696174933  0.9884247692451086  1.0000
  H   H711      1.0  0.10687407097896671  0.3433485403554378  0.932139057291882  1.0000
  H   H712      1.0  0.06438573851503072  0.3507524891093136  0.9394530584447461  1.0000
  H   H713      1.0  0.018149060783005933  0.4313327141906778  0.9922661564052262  1.0000
  H   H714      1.0  0.030921483993055165  0.46092528147520156  0.04671809699976017  1.0000
  H   H715      1.0  0.06255720640465426  0.40880907367471475  0.12722674274309778  1.0000
  H   H716      1.0  0.05712716662825685  0.37981747019453954  0.06610805355748843  1.0000
  H   H717      1.0  0.057263208394617085  0.5377072215929293  0.07774352990132578  1.0000
  H   H718      1.0  0.06250063500598503  0.5057460863371956  0.12559423856420687  1.0000
  H   H719      1.0  0.07634869003009365  0.46178368631438055  0.014006700448310205  1.0000
  H   H720      1.0  0.07491074178693909  0.4962847542002524  0.9627267427855124  1.0000
  H   H721      1.0  0.08841360975202493  0.4287247167067655  0.16995969933879276  1.0000
  H   H722      1.0  0.11980839156064022  0.40112327323421937  0.1661278729644958  1.0000
  H   H723      1.0  0.14334618142221087  0.43338266439154693  0.044585700305099285  1.0000
  H   H724      1.0  0.11163896510543443  0.4598910890652601  0.04708174831758464  1.0000
  H   H725      1.0  0.0948088247146369  0.47770388331481295  0.17617864905854597  1.0000
  H   H726      1.0  0.08239534311052928  0.4924582370869973  0.2481481472374193  1.0000
  H   H727      1.0  0.014103969098900437  0.4651262137943011  0.2240075044966939  1.0000
  H   H728      1.0  0.02583591707651256  0.45460512521886876  0.14928996330763153  1.0000
  C   C1145     1.0  0.811210111085608  0.7808067240707046  0.7979944030942078  1.0000
  C   C1146     1.0  0.8269453482033946  0.7933781652915232  0.8231631717672988  1.0000
  C   C1147     1.0  0.8486620414377303  0.7843695005379087  0.8323859155179459  1.0000
  C   C1148     1.0  0.8540568933169634  0.7617639640613943  0.8190554484307464  1.0000
  C   C1149     1.0  0.8374289630626781  0.7494924157273626  0.794320329685953  1.0000
  C   C1150     1.0  0.8163269214955532  0.758794014276086  0.783356157089386  1.0000
  H   H729      1.0  0.8225527039904199  0.8108641888315431  0.8351278123086787  1.0000
  H   H730      1.0  0.8617085496969711  0.794457839896004  0.8492607024915473  1.0000
  H   H731      1.0  0.8407253486675108  0.7328721607276003  0.7804435319804257  1.0000
  H   H732      1.0  0.804246548787664  0.7492824045392169  0.7624590109383458  1.0000
  C   C1151     1.0  0.8676113786111462  0.7104283861874061  0.8498514224726142  1.0000
  C   C1152     1.0  0.8832203231205158  0.7247275826810282  0.8271411415819986  1.0000
  C   C1153     1.0  0.9040174226044679  0.7146590685426398  0.813288245841023  1.0000
  C   C1154     1.0  0.908313127862544  0.6913250425155764  0.8211451630458504  1.0000
  C   C1155     1.0  0.8917161698969923  0.6776126475377108  0.8415437825076665  1.0000
  C   C1156     1.0  0.8717823319154602  0.6872120941587747  0.8568410398208461  1.0000
  C   C1157     1.0  0.8802103701980273  0.752050117014276  0.8219100259115093  1.0000
  C   C1158     1.0  0.8932629187968226  0.7597078721454421  0.8679588679038179  1.0000
  C   C1159     1.0  0.9166538832899254  0.765065876028758  0.8670130330208379  1.0000
  C   C1160     1.0  0.9286063036740908  0.7706197641069474  0.9064205434340985  1.0000
  C   C1161     1.0  0.9174179727508539  0.7715457945941372  0.9473202193486671  1.0000
  C   C1162     1.0  0.8941132526701001  0.7657877236632429  0.948880676177266  1.0000
  C   C1163     1.0  0.8822929698067563  0.7596680841323273  0.9097907204359085  1.0000
  C   C1164     1.0  0.8845788090826072  0.7500608977008854  0.7340907935816722  1.0000
  C   C1165     1.0  0.8888461519848221  0.760071073026952  0.6922555264832172  1.0000
  C   C1166     1.0  0.8969750116375519  0.7824623683310938  0.6880760972530091  1.0000
  C   C1167     1.0  0.901668133566527  0.794138694127557  0.7285865126020191  1.0000
  C   C1168     1.0  0.8975067683177871  0.7846042350095852  0.7707632363369291  1.0000
  C   C1169     1.0  0.8889797270586375  0.762313372533658  0.7742187774978527  1.0000
  C   C1170     1.0  0.9024565631387207  0.794342249442952  0.638783417214379  1.0000
  C   C1171     1.0  0.9723389563380418  0.764312455178626  0.6276143706359391  1.0000
  C   C1172     1.0  0.9529633295286242  0.7531867101762458  0.6092576618601233  1.0000
  C   C1173     1.0  0.9316415323216083  0.7634771657900801  0.6109649450423978  1.0000
  C   C1174     1.0  0.9281383467982697  0.7842353191471753  0.6335386432784316  1.0000
  C   C1175     1.0  0.9473870231495123  0.7942524720385121  0.6550538259414552  1.0000
  C   C1176     1.0  0.9694967509906752  0.7847858406646543  0.6512499990113476  1.0000
  C   C1177     1.0  0.9013573193068758  0.8223335231063397  0.6378990445259608  1.0000
  C   C1178     1.0  0.8842105842432791  0.8331321288788384  0.663149762791801  1.0000
  C   C1179     1.0  0.882381717407744  0.8570423190284499  0.6636653623128479  1.0000
  C   C1180     1.0  0.8973020575605603  0.8705285333098469  0.6391760923463021  1.0000
  C   C1181     1.0  0.9136089577358912  0.8596350831761308  0.6129214915692844  1.0000
  C   C1182     1.0  0.9156483369167022  0.8362989383755911  0.611569323288923  1.0000
  C   C1183     1.0  0.8920037679537111  0.7882927200004323  0.5522070870412378  1.0000
  C   C1184     1.0  0.8774186501346604  0.7820903582825117  0.5163951150098472  1.0000
  C   C1185     1.0  0.8544877779324569  0.7764069223743089  0.5263758924934241  1.0000
  C   C1186     1.0  0.8467712757172645  0.7780881326951662  0.5708233028607592  1.0000
  C   C1187     1.0  0.8621104975453513  0.7835047491248599  0.6062528434593202  1.0000
  C   C1188     1.0  0.8851624312234803  0.7879324039541221  0.5983037329626499  1.0000
  H   H733      1.0  0.8515605135439837  0.7172727033278937  0.8629736010115763  1.0000
  H   H734      1.0  0.9168113984693005  0.725467975733753  0.7968573524948129  1.0000
  H   H735      1.0  0.9242501258796715  0.6833465643768872  0.8096927074591529  1.0000
  H   H736      1.0  0.8579209658796723  0.6771424456748893  0.8721417117003905  1.0000
  H   H737      1.0  0.9257051774792483  0.7643547795595977  0.8357560925197557  1.0000
  H   H738      1.0  0.9464371259406553  0.7773150290272509  0.9029752459722685  1.0000
  H   H739      1.0  0.88445856721389  0.766988033112858  0.979932742696475  1.0000
  H   H740      1.0  0.863854171655082  0.7555112027519557  0.912232135386561  1.0000
  H   H741      1.0  0.8767909042198804  0.7330668822216571  0.7341624994753279  1.0000
  H   H742      1.0  0.8854454578322963  0.7490328905297792  0.6635868272864633  1.0000
  H   H743      1.0  0.9078600099405133  0.8116439157929995  0.7296825884050394  1.0000
  H   H744      1.0  0.8981674965259452  0.7961327005535013  0.8005689861330777  1.0000
  H   H745      1.0  0.954432995394907  0.7363249925897705  0.5917819112063613  1.0000
  H   H746      1.0  0.9172209833811211  0.7540974325545736  0.5960159734984022  1.0000
  H   H747      1.0  0.9447578559390596  0.809272038909128  0.6752304985895756  1.0000
  H   H748      1.0  0.9834889882447283  0.7932287992242589  0.668609654408715  1.0000
  H   H749      1.0  0.8709909170278538  0.8239429866858775  0.6819162195313627  1.0000
  H   H750      1.0  0.8682366577258969  0.8644497544576684  0.6840878837392159  1.0000
  H   H751      1.0  0.9255506391990695  0.8695064212546925  0.5935369983177395  1.0000
  H   H752      1.0  0.9297625432533752  0.8287213235971066  0.5917648383745385  1.0000
  H   H753      1.0  0.9098376563245487  0.7921612328995843  0.5441282230227147  1.0000
  H   H754      1.0  0.8827972844920614  0.7837901760406341  0.48152897786143684  1.0000
  H   H755      1.0  0.8289259570824612  0.7740949593796834  0.5776353627580345  1.0000
  H   H756      1.0  0.8549207086802328  0.7844388416457029  0.639790714291921  1.0000
  C   C1189     1.0  0.5438089977380516  0.744976668069297  0.807548359782216  1.0000
  C   C1190     1.0  0.5405370176870428  0.7685917076289843  0.8004733782748704  1.0000
  C   C1191     1.0  0.5568464705983285  0.7838625216131063  0.8168632968247058  1.0000
  C   C1192     1.0  0.5757413985328808  0.776462166994615  0.842448642594272  1.0000
  C   C1193     1.0  0.5788619906540692  0.7525146803898987  0.8475773212738246  1.0000
  C   C1194     1.0  0.5628394216613574  0.7369018849095142  0.8303883941946847  1.0000
  H   H757      1.0  0.5264046272433102  0.7758832232621752  0.780358167821312  1.0000
  H   H758      1.0  0.5547677279478306  0.8016045157056966  0.8069405669693264  1.0000
  H   H759      1.0  0.5941099889393388  0.7455301997891026  0.8661628059960652  1.0000
  H   H760      1.0  0.5659989586386682  0.7182272719839188  0.8326454225616516  1.0000
  C   C1195     1.0  0.5803919115233817  0.7792310500978168  0.942679823659245  1.0000
  C   C1196     1.0  0.5956088347083045  0.7928657690920736  0.9165993657668192  1.0000
  C   C1197     1.0  0.6099426299485073  0.808064162548924  0.9404501118231944  1.0000
  C   C1198     1.0  0.6101039919298843  0.8096463150631331  0.9873457662739111  1.0000
  C   C1199     1.0  0.5962743400706878  0.7952586380522353  0.0126647758670424  1.0000
  C   C1200     1.0  0.5808718022390884  0.780310019089404  0.9897325481627309  1.0000
  C   C1201     1.0  0.5952931541281777  0.7941468559546512  0.8611263206083553  1.0000
  C   C1202     1.0  0.5902957793615567  0.8210475076428607  0.8509918876383736  1.0000
  C   C1203     1.0  0.6071552780800039  0.8359464457196917  0.8334615039227787  1.0000
  C   C1204     1.0  0.6031322234813605  0.8593284286478454  0.8289611054543032  1.0000
  C   C1205     1.0  0.5831729102604707  0.8690779139753496  0.8467748981781555  1.0000
  C   C1206     1.0  0.56707926609295  0.8546486554238886  0.867996428133828  1.0000
  C   C1207     1.0  0.5704775659064663  0.8310552220068138  0.8694066440423868  1.0000
  C   C1208     1.0  0.6410219663545235  0.7894132114324348  0.8544440142329327  1.0000
  C   C1209     1.0  0.660224872708519  0.79132831068016  0.8274723545193597  1.0000
  C   C1210     1.0  0.6582990536850302  0.7884414110703057  0.7801703666712617  1.0000
  C   C1211     1.0  0.6364839870122346  0.7839510450308836  0.7618921929218306  1.0000
  C   C1212     1.0  0.6173116008187338  0.7834815816762483  0.7890482392190893  1.0000
  C   C1213     1.0  0.6189391929531768  0.7868588613054405  0.8354248795823945  1.0000
  C   C1214     1.0  0.6783078793792716  0.7957327488736844  0.7467281036968683  1.0000
  C   C1215     1.0  0.7465527641031601  0.7978181096373632  0.8109697552794942  1.0000
  C   C1216     1.0  0.7384491315961402  0.8173809214119306  0.789065312050912  1.0000
  C   C1217     1.0  0.7162770718025102  0.8174277389061004  0.7713368834861734  1.0000
  C   C1218     1.0  0.7026320149105586  0.7979462097766438  0.7728700237838558  1.0000
  C   C1219     1.0  0.7115092198407083  0.7781465958258701  0.7948359292069999  1.0000
  C   C1220     1.0  0.7332541667539213  0.7785852260824523  0.814189691361264  1.0000
  C   C1221     1.0  0.6672134901124807  0.8186761543274855  0.7251241423083664  1.0000
  C   C1222     1.0  0.654751498546482  0.8181106824582582  0.6842961722874534  1.0000
  C   C1223     1.0  0.64078484999244  0.8361097010543302  0.6712798453057924  1.0000
  C   C1224     1.0  0.6406397618173743  0.8563630719710825  0.6963734935188635  1.0000
  C   C1225     1.0  0.6546806322675176  0.8576009510041389  0.735227844181067  1.0000
  C   C1226     1.0  0.6659057444520393  0.8384758294700524  0.7512831352271768  1.0000
  C   C1227     1.0  0.7002786981538858  0.784780011137381  0.6723315317460735  1.0000
  C   C1228     1.0  0.7082155223234057  0.7689663889472089  0.64135117112052  1.0000
  C   C1229     1.0  0.6991999914472694  0.7470037575499718  0.6392819439036032  1.0000
  C   C1230     1.0  0.6828340443491762  0.7403773624239014  0.6701257218745748  1.0000
  C   C1231     1.0  0.6754072635154444  0.756074986722856  0.7019665532239947  1.0000
  C   C1232     1.0  0.6842819019433631  0.7782230667942737  0.7050942960139216  1.0000
  H   H761      1.0  0.5670747848642038  0.7685084009620212  0.9296908132085003  1.0000
  H   H762      1.0  0.6201390556920083  0.8205207111002895  0.9220012097555358  1.0000
  H   H763      1.0  0.6210171401635075  0.8225030971968164  0.0034352029836661746  1.0000
  H   H764      1.0  0.5697086728381349  0.769559915647437  0.01001848693451679  1.0000
  H   H765      1.0  0.6234525076825895  0.8301368914188846  0.8206910257193654  1.0000
  H   H766      1.0  0.616695964147977  0.8705948843963454  0.8162964788081908  1.0000
  H   H767      1.0  0.5518912390113566  0.8623662529277542  0.8820746852548637  1.0000
  H   H768      1.0  0.5583559008823692  0.820699813921882  0.8888935742848681  1.0000
  H   H769      1.0  0.6440551002867603  0.7927817481027153  0.889856481999671  1.0000
  H   H770      1.0  0.6762109076173713  0.7942690067627992  0.8439578809274026  1.0000
  H   H771      1.0  0.6328029163079831  0.7831943339068445  0.7258480303776508  1.0000
  H   H772      1.0  0.600691539664702  0.782460154741331  0.7704764127623069  1.0000
  H   H773      1.0  0.7489593993184834  0.8328544393564087  0.7844727202905936  1.0000
  H   H774      1.0  0.710463788420792  0.8325032698121347  0.7524953062865917  1.0000
  H   H775      1.0  0.7014974775235708  0.7616713626547912  0.7968402796629902  1.0000
  H   H776      1.0  0.7401787081066021  0.762963037131494  0.8310849657330527  1.0000
  H   H777      1.0  0.6536658863014976  0.8025586551272739  0.6646897322222127  1.0000
  H   H778      1.0  0.6298414099197791  0.8341800539884489  0.6406955743785265  1.0000
  H   H779      1.0  0.655088135894993  0.8734600062478179  0.7554796372892075  1.0000
  H   H780      1.0  0.6732205524108239  0.838420828887719  0.7849575887143595  1.0000
  H   H781      1.0  0.7074562648950428  0.8022421650286988  0.6740183275301607  1.0000
  H   H782      1.0  0.7213410560650697  0.7743300661085993  0.6169438507467233  1.0000
  H   H783      1.0  0.6762802324162619  0.7228199921944579  0.6691525704606783  1.0000
  H   H784      1.0  0.6625041131379885  0.7503394003746755  0.7251719462374702  1.0000
  C   C1233     1.0  0.48836039959109634  0.041728508350208415  0.6041358123132998  1.0000
  C   C1234     1.0  0.5047101676535406  0.04811566312609008  0.57335349653689  1.0000
  C   C1235     1.0  0.5025956000856711  0.0684981631885953  0.5498442071169698  1.0000
  C   C1236     1.0  0.483716171688218  0.08312372429672434  0.5561782277232082  1.0000
  C   C1237     1.0  0.4677394855840018  0.07700220617932116  0.5887702636728289  1.0000
  C   C1238     1.0  0.46989634048098716  0.056526144096581035  0.6126653990919433  1.0000
  H   H785      1.0  0.5183566248912714  0.036639076498301976  0.5655819434911764  1.0000
  H   H786      1.0  0.5152612930826037  0.072696564094426  0.5243408109401528  1.0000
  H   H787      1.0  0.4524660292699909  0.08731026739819987  0.5953023291282113  1.0000
  H   H788      1.0  0.4565074847033317  0.05169521842213892  0.6362122487418735  1.0000
  C   C1239     1.0  0.43683050865500117  0.09937847370398463  0.5078689427975682  1.0000
  C   C1240     1.0  0.45513282129837546  0.11451432424867426  0.5159682942142786  1.0000
  C   C1241     1.0  0.45004031241041625  0.1380979595170386  0.5105698647919266  1.0000
  C   C1242     1.0  0.4289272434280909  0.14597111735893287  0.4939033663665626  1.0000
  C   C1243     1.0  0.41180810696867687  0.1304982563352234  0.48381332275932015  1.0000
  C   C1244     1.0  0.4153538509849153  0.10707221128502492  0.4922438871133918  1.0000
  C   C1245     1.0  0.48085379768372905  0.1053848064091502  0.5247676317357215  1.0000
  C   C1246     1.0  0.4866133219243873  0.0994140302607086  0.4716506373687964  1.0000
  C   C1247     1.0  0.4922258185305858  0.11631684688983118  0.44042101339863077  1.0000
  C   C1248     1.0  0.4938730617289579  0.11192100945035681  0.39457704538819516  1.0000
  C   C1249     1.0  0.48987742899097486  0.08989245571198785  0.37732324154812874  1.0000
  C   C1250     1.0  0.4839284048792495  0.07261590142290003  0.40767873652896985  1.0000
  C   C1251     1.0  0.481395091256279  0.07734660397293623  0.4532597829293352  1.0000
  C   C1252     1.0  0.48516287059013713  0.1334294590813429  0.5927892082839032  1.0000
  C   C1253     1.0  0.4963750299955796  0.14973274644508466  0.6188901535745163  1.0000
  C   C1254     1.0  0.5173480793893139  0.15873161891511672  0.6065601544321295  1.0000
  C   C1255     1.0  0.5270255776125993  0.15038848378185765  0.5660907138794942  1.0000
  C   C1256     1.0  0.5166974423428319  0.13260486644787758  0.5417243683020722  1.0000
  C   C1257     1.0  0.49527051863649657  0.1242807342794919  0.5543514347181745  1.0000
  C   C1258     1.0  0.5286146184982193  0.18034236575569665  0.6347234978069302  1.0000
  C   C1259     1.0  0.4948061327239238  0.243438912832574  0.5846010781417146  1.0000
  C   C1260     1.0  0.48391248210595217  0.22987011187959552  0.6169062905167132  1.0000
  C   C1261     1.0  0.4936977060761322  0.20894448399686366  0.6289187349871969  1.0000
  C   C1262     1.0  0.5152589088264142  0.20188860473204062  0.6125663766673715  1.0000
  C   C1263     1.0  0.5239853525660112  0.2143795021805349  0.5760407602657901  1.0000
  C   C1264     1.0  0.5144656349864687  0.23522670845177165  0.5639634390343802  1.0000
  C   C1265     1.0  0.555894130819009  0.18180179143641995  0.6325450044663479  1.0000
  C   C1266     1.0  0.5706148034367411  0.1630507380559714  0.6293592140482236  1.0000
  C   C1267     1.0  0.5939648001308766  0.1657412560269635  0.6260744012055274  1.0000
  C   C1268     1.0  0.6040622906765245  0.1877212386538326  0.6302470013030064  1.0000
  C   C1269     1.0  0.5899242756089329  0.20617384203360758  0.6400502213356267  1.0000
  C   C1270     1.0  0.5665858587545703  0.20318856451322545  0.6397292520973591  1.0000
  C   C1271     1.0  0.5254752946183909  0.19925716767473728  0.715276532913007  1.0000
  C   C1272     1.0  0.5246442156469765  0.19845992062990755  0.7616224421790312  1.0000
  C   C1273     1.0  0.5249417018594565  0.1774445748212463  0.7834278629830416  1.0000
  C   C1274     1.0  0.5263485427802853  0.15731602925891952  0.7574054527188132  1.0000
  C   C1275     1.0  0.527790500447658  0.1580889515332895  0.7106941848517822  1.0000
  C   C1276     1.0  0.5255415047780645  0.1789518322966582  0.6883526771285376  1.0000
  H   H789      1.0  0.4397773164069684  0.0808918180002439  0.510399136473699  1.0000
  H   H790      1.0  0.463388396891384  0.15130749332888005  0.5156302521441882  1.0000
  H   H791      1.0  0.42699628904777714  0.16393499303680317  0.4887951750851972  1.0000
  H   H792      1.0  0.40212012747016207  0.09404785438631671  0.483314796070096  1.0000
  H   H793      1.0  0.4947971569733259  0.1340898020998341  0.4522900460818033  1.0000
  H   H794      1.0  0.49698967209515565  0.12721165354799466  0.3731540560170144  1.0000
  H   H795      1.0  0.48010638273502976  0.05561201804267397  0.39450192492817504  1.0000
  H   H796      1.0  0.4757456293492402  0.06359774330923806  0.4753212962106867  1.0000
  H   H797      1.0  0.46859475231285724  0.12705462721817626  0.6038626470041358  1.0000
  H   H798      1.0  0.4873810356421986  0.1556251304978131  0.6483920069642201  1.0000
  H   H799      1.0  0.5424238265474939  0.15796928265722818  0.5525417145449635  1.0000
  H   H800      1.0  0.5252385620731016  0.12541862026696962  0.5123625121333149  1.0000
  H   H801      1.0  0.46823456531236557  0.23619897671465873  0.632271839157184  1.0000
  H   H802      1.0  0.48522732437192834  0.1992148220326961  0.6556206439579705  1.0000
  H   H803      1.0  0.5393338544217433  0.2083401125402258  0.5589645138766803  1.0000
  H   H804      1.0  0.5223004147321223  0.24629133654331486  0.5384361408930114  1.0000
  H   H805      1.0  0.5634559075374933  0.1456536040925641  0.6279660709714876  1.0000
  H   H806      1.0  0.6046669570469769  0.15038583305777  0.6221715518508478  1.0000
  H   H807      1.0  0.5970522561688938  0.22269207303246014  0.6504714778802304  1.0000
  H   H808      1.0  0.5561959737214097  0.21857046610440498  0.6469169142947347  1.0000
  H   H809      1.0  0.525549612305946  0.216532614104514  0.7012221777565231  1.0000
  H   H810      1.0  0.5254559133670943  0.21445163339943016  0.7822498375872721  1.0000
  H   H811      1.0  0.5280079317045531  0.14063701504244885  0.7757655760609935  1.0000
  H   H812      1.0  0.5311419931124995  0.14248525726193292  0.6911594506801969  1.0000
  C   C1277     1.0  0.5389189101677269  0.8059362482898457  0.3947785048037035  1.0000
  C   C1278     1.0  0.554420406052265  0.8226727298776778  0.37968953603876127  1.0000
  C   C1279     1.0  0.5554597670940896  0.844246291051729  0.4005320491279687  1.0000
  C   C1280     1.0  0.5413803587762572  0.8496843996892253  0.4367059651940014  1.0000
  C   C1281     1.0  0.5271797779274909  0.8323145673798928  0.4525154074618635  1.0000
  C   C1282     1.0  0.5260855886801339  0.8108290286648744  0.4328577489011546  1.0000
  H   H813      1.0  0.564831760263196  0.8202923065205987  0.34946379457977306  1.0000
  H   H814      1.0  0.5664836508857081  0.8564552661923267  0.3861089208041135  1.0000
  H   H815      1.0  0.5139056642048422  0.8358526829079793  0.47782075878953656  1.0000
  H   H816      1.0  0.5136130388809844  0.7975946797778911  0.4434155881003403  1.0000
  C   C1283     1.0  0.504957682702999  0.8790290435725744  0.3989237883702661  1.0000
  C   C1284     1.0  0.5247016683741408  0.8898082539067143  0.41513956403550956  1.0000
  C   C1285     1.0  0.5292409292146097  0.9118166436230928  0.398152096371878  1.0000
  C   C1286     1.0  0.5150625584320315  0.9219399451174075  0.36495909674209664  1.0000
  C   C1287     1.0  0.4971556431308967  0.909215683320074  0.3468892115409031  1.0000
  C   C1288     1.0  0.49130133645001256  0.8883649344646374  0.36544396516586264  1.0000
  C   C1289     1.0  0.5395271238919302  0.876871329381679  0.4536114832648837  1.0000
  C   C1290     1.0  0.5656130369111125  0.8859441061230059  0.4636366501111998  1.0000
  C   C1291     1.0  0.5753413689006062  0.8855195312784873  0.5077733349393608  1.0000
  C   C1292     1.0  0.5972978312706748  0.8932734814694027  0.5172077818046099  1.0000
  C   C1293     1.0  0.6112775609324094  0.9007924263008822  0.4830928492564003  1.0000
  C   C1294     1.0  0.6023923027322907  0.9018325534702866  0.4399395595412293  1.0000
  C   C1295     1.0  0.5801937018370892  0.8940866575679985  0.42968561674848854  1.0000
  C   C1296     1.0  0.5168811218434028  0.9041352401342015  0.5080874750448994  1.0000
  C   C1297     1.0  0.5106359067759904  0.9115011338359432  0.5506705321771906  1.0000
  C   C1298     1.0  0.5139570341939136  0.8977943095356272  0.5889751376547019  1.0000
  C   C1299     1.0  0.5190887930957082  0.874816189037626  0.5801484836023427  1.0000
  C   C1300     1.0  0.524860400354025  0.8674166993882485  0.5369303171262453  1.0000
  C   C1301     1.0  0.5250884407931116  0.8823547154684153  0.5007017679983797  1.0000
  C   C1302     1.0  0.513138867750999  0.9081032220830955  0.6400365630701684  1.0000
  C   C1303     1.0  0.5103350655450539  0.9846058333245984  0.6549206578532378  1.0000
  C   C1304     1.0  0.49807078889861145  0.9704044991199401  0.6846034832602628  1.0000
  C   C1305     1.0  0.49916939151645556  0.9466634689380461  0.6800074769335798  1.0000
  C   C1306     1.0  0.5113040187341299  0.9362506178469219  0.6449296366705672  1.0000
  C   C1307     1.0  0.5237347024381055  0.9512691487579804  0.6157589962182247  1.0000
  C   C1308     1.0  0.5231182554549638  0.9748590504821153  0.6208398709686737  1.0000
  C   C1309     1.0  0.5374037278541888  0.8994732892652939  0.6633853678709549  1.0000
  C   C1310     1.0  0.5409819859488177  0.8766268440018591  0.6777265466020609  1.0000
  C   C1311     1.0  0.5618974976526319  0.8696381396896983  0.6953832692731442  1.0000
  C   C1312     1.0  0.5804155687171089  0.8842179201561088  0.6969403115353785  1.0000
  C   C1313     1.0  0.5775717704358538  0.9064580136883934  0.6822337742032657  1.0000
  C   C1314     1.0  0.5565275287523425  0.9141455146675961  0.6673052900574572  1.0000
  C   C1315     1.0  0.49120047224417446  0.8892833946930975  0.7069791366471527  1.0000
  C   C1316     1.0  0.4719769146827275  0.8800721296480027  0.7263943609959786  1.0000
  C   C1317     1.0  0.451486832204085  0.8793936149886532  0.7032367719116069  1.0000
  C   C1318     1.0  0.4499318983017418  0.8894618894801106  0.6600049471700514  1.0000
  C   C1319     1.0  0.4693828827793092  0.8978835476600066  0.6397326666637236  1.0000
  C   C1320     1.0  0.4904913657831311  0.8976261514011296  0.6620161267587709  1.0000
  H   H817      1.0  0.4994361339220645  0.8626515985491292  0.41217572043108097  1.0000
  H   H818      1.0  0.5434164552693302  0.9225247068605348  0.41032161089513086  1.0000
  H   H819      1.0  0.5196565983748983  0.9386936744679021  0.3518437473358637  1.0000
  H   H820      1.0  0.47632704248907987  0.8786724334205446  0.3535715179163255  1.0000
  H   H821      1.0  0.5672602659993847  0.8788258952464757  0.5372854320281584  1.0000
  H   H822      1.0  0.6047436970959307  0.8908658172540719  0.5511007675391238  1.0000
  H   H823      1.0  0.6128657420099775  0.9067818614838291  0.4113152497072146  1.0000
  H   H824      1.0  0.5745117239546226  0.8956499589461204  0.39397266714166995  1.0000
  H   H825      1.0  0.5160380493548649  0.9170419764253092  0.48198994432065095  1.0000
  H   H826      1.0  0.5034222924008073  0.9285978611395274  0.5527329302613783  1.0000
  H   H827      1.0  0.5195019008718413  0.8621056410302255  0.6054845660272966  1.0000
  H   H828      1.0  0.5314665139415078  0.8501915546070756  0.5354415661913019  1.0000
  H   H829      1.0  0.48763869136148946  0.978272711316371  0.710656624621772  1.0000
  H   H830      1.0  0.4894152990079258  0.9372994802890311  0.7044591866701155  1.0000
  H   H831      1.0  0.5350548772654093  0.9440092367794832  0.5903307205014279  1.0000
  H   H832      1.0  0.5321880192986863  0.9859677357783669  0.5981466629098806  1.0000
  H   H833      1.0  0.5276038222336891  0.8640424447222341  0.6756197591551343  1.0000
  H   H834      1.0  0.5646887860528984  0.8516755102260158  0.7059854978350689  1.0000
  H   H835      1.0  0.5917829815356459  0.9192459067662322  0.6818206116731553  1.0000
  H   H836      1.0  0.5562289257639039  0.9321661980575592  0.6574337786975459  1.0000
  H   H837      1.0  0.5060410610457298  0.89138173130503  0.7285250504074572  1.0000
  H   H838      1.0  0.4729824534575412  0.8741531583174929  0.7620492629745999  1.0000
  H   H839      1.0  0.43370421710539864  0.8897956139291794  0.641713115155162  1.0000
  H   H840      1.0  0.46811313964581347  0.9045873749669883  0.6055289553900357  1.0000
  C   C1321     1.0  0.057664247281380344  0.28081528517459947  0.3476813909374784  1.0000
  C   C1322     1.0  0.06884240238741449  0.30146818924568064  0.3540188261100815  1.0000
  C   C1323     1.0  0.09214143267296016  0.3025685634972911  0.36239475740232036  1.0000
  C   C1324     1.0  0.10506896226842016  0.28244779839250383  0.36600395404964864  1.0000
  C   C1325     1.0  0.09477859916698576  0.2615621292329986  0.35168667728309444  1.0000
  C   C1326     1.0  0.07111708431538485  0.2608489014446382  0.3417810202595376  1.0000
  H   H841      1.0  0.057544923868176175  0.3164907254371861  0.35826313210121596  1.0000
  H   H842      1.0  0.09974349470552228  0.31949041606792655  0.36792294034652523  1.0000
  H   H843      1.0  0.10424475648247444  0.24485343163346385  0.3513861954430142  1.0000
  H   H844      1.0  0.06322041259556546  0.2445387478711239  0.33240393810921304  1.0000
  C   C1327     1.0  0.12458978230204741  0.2506776548265439  0.44152050376801555  1.0000
  C   C1328     1.0  0.13975039272082673  0.2617471515131839  0.4111786670526327  1.0000
  C   C1329     1.0  0.16310297320404935  0.25571513505394344  0.41426884961254956  1.0000
  C   C1330     1.0  0.1712541345886643  0.24226380608383316  0.4497461941402142  1.0000
  C   C1331     1.0  0.15598511887947467  0.23457471080530765  0.48233140095710586  1.0000
  C   C1332     1.0  0.13261904315560483  0.23769299122561707  0.47690906957020196  1.0000
  C   C1333     1.0  0.13125284080632899  0.2835665606409294  0.38215143838760113  1.0000
  C   C1334     1.0  0.13718592819851577  0.30342041159400857  0.41946581961939317  1.0000
  C   C1335     1.0  0.1594602638280331  0.31360235014003596  0.42267892656843387  1.0000
  C   C1336     1.0  0.1636350523527096  0.33326981157560165  0.44901889150456525  1.0000
  C   C1337     1.0  0.145881968747488  0.3417303940697558  0.4753759292725194  1.0000
  C   C1338     1.0  0.1254335988629474  0.3295105804514538  0.47839099137241625  1.0000
  C   C1339     1.0  0.12153580212531714  0.3100801199575881  0.45223882758633505  1.0000
  C   C1340     1.0  0.14701137191889374  0.26709067023425076  0.30689132260321184  1.0000
  C   C1341     1.0  0.15718983344075893  0.26888642191339085  0.26565940938137267  1.0000
  C   C1342     1.0  0.16305701093576688  0.2902221147988074  0.24809829456849689  1.0000
  C   C1343     1.0  0.1608148043789438  0.30958622143947223  0.2762151998407396  1.0000
  C   C1344     1.0  0.14961970540314617  0.3081561283319025  0.317362431816738  1.0000
  C   C1345     1.0  0.14387630213258254  0.28633808221534396  0.33499491106663287  1.0000
  C   C1346     1.0  0.17374276399741034  0.29127747850859  0.19784441409824616  1.0000
  C   C1347     1.0  0.24557475485971683  0.2770912435636658  0.2377265492361791  1.0000
  C   C1348     1.0  0.23068605773214607  0.2591131270006393  0.22890706577318534  1.0000
  C   C1349     1.0  0.20842342107413328  0.2642316117722023  0.21587947072252137  1.0000
  C   C1350     1.0  0.19974240854671943  0.2866691129351185  0.21286065259962356  1.0000
  C   C1351     1.0  0.21502686314136607  0.3044721271378637  0.22486046317455827  1.0000
  C   C1352     1.0  0.23784768255956398  0.3001893054162124  0.23535001104645298  1.0000
  C   C1353     1.0  0.16878633454762154  0.3146798965070194  0.1709226070535956  1.0000
  C   C1354     1.0  0.14779589709358487  0.32664710175546124  0.17653922726664234  1.0000
  C   C1355     1.0  0.14569273587613402  0.34950902930832334  0.16195766306347206  1.0000
  C   C1356     1.0  0.16405047906346387  0.3595699238612746  0.14004707361543367  1.0000
  C   C1357     1.0  0.18330812390164888  0.3467989920759683  0.128970561785473  1.0000
  C   C1358     1.0  0.1854801626957876  0.3241366839067364  0.14272545947178594  1.0000
  C   C1359     1.0  0.17447370022538103  0.2605771858152883  0.1298904459640825  1.0000
  C   C1360     1.0  0.1647640324104935  0.24079388510747488  0.1111618909111674  1.0000
  C   C1361     1.0  0.14237279958394322  0.2341711586019443  0.12258224957403817  1.0000
  C   C1362     1.0  0.12909516189792353  0.24859072474774002  0.1481740830196969  1.0000
  C   C1363     1.0  0.1388975396963414  0.26852728945748533  0.16691185740179626  1.0000
  C   C1364     1.0  0.16232232363843563  0.2732829767107001  0.16192488322637238  1.0000
  H   H845      1.0  0.1062498829661354  0.2554764323724852  0.44033906380588156  1.0000
  H   H846      1.0  0.17526178203351034  0.2639140231758004  0.39199904778296063  1.0000
  H   H847      1.0  0.18957664080834827  0.2406313023046311  0.45109153328784657  1.0000
  H   H848      1.0  0.12053544618752916  0.2322054552042457  0.5032387908072397  1.0000
  H   H849      1.0  0.173019113198544  0.308411374038793  0.3993984130949384  1.0000
  H   H850      1.0  0.17973095756273164  0.3422951870720014  0.4454643279190697  1.0000
  H   H851      1.0  0.11199140696653856  0.33656326732646524  0.4994759386735067  1.0000
  H   H852      1.0  0.10478240969495202  0.3019625662143267  0.45420220324595073  1.0000
  H   H853      1.0  0.14258261871248712  0.2503595211688074  0.3199315515494247  1.0000
  H   H854      1.0  0.15877692609282645  0.2536088171479377  0.24512147561188302  1.0000
  H   H855      1.0  0.1654014251161718  0.32661384508901  0.26368988750230077  1.0000
  H   H856      1.0  0.14597310965222374  0.32409860198637785  0.33520934583432654  1.0000
  H   H857      1.0  0.23701173818682492  0.24118126868519124  0.23004992113539993  1.0000
  H   H858      1.0  0.1974779692232398  0.24921394304628636  0.20900321697759247  1.0000
  H   H859      1.0  0.20957482805482375  0.32272774896717066  0.22569430028078116  1.0000
  H   H860      1.0  0.2492445409208136  0.3143773994680447  0.24366345577422058  1.0000
  H   H861      1.0  0.1333986594464681  0.3192934909132287  0.19522373441345478  1.0000
  H   H862      1.0  0.12992667645862094  0.3597130568628163  0.1688475750738591  1.0000
  H   H863      1.0  0.19721823717140818  0.3553142573295721  0.11033454148103716  1.0000
  H   H864      1.0  0.20137011812784744  0.31442765135145945  0.1363296352143491  1.0000
  H   H865      1.0  0.1924163960157209  0.2640051269188625  0.12404709854442972  1.0000
  H   H866      1.0  0.17553026555522072  0.2309985662107671  0.08828634500850746  1.0000
  H   H867      1.0  0.11082486627396976  0.24534961527645766  0.15462624762214877  1.0000
  H   H868      1.0  0.12784222505261353  0.27882546704498756  0.18922297548439626  1.0000
  C   C1365     1.0  0.29674113066150387  0.25874815382041916  0.31502755133665933  1.0000
  C   C1366     1.0  0.3133348628145478  0.2744095571162  0.32765325192621597  1.0000
  C   C1367     1.0  0.3354407266807917  0.26722751064884065  0.33653658778022677  1.0000
  C   C1368     1.0  0.3416029887129918  0.24394483505833134  0.3323496465040167  1.0000
  C   C1369     1.0  0.3246675344962686  0.22878520459472954  0.317797789028218  1.0000
  C   C1370     1.0  0.30248798161864293  0.2360418949189322  0.310793830501255  1.0000
  H   H869      1.0  0.31006872919573103  0.2929605423084253  0.32979247775360593  1.0000
  H   H870      1.0  0.34786130314267066  0.27981840461866414  0.34897209702327797  1.0000
  H   H871      1.0  0.32843134424968784  0.210294935858801  0.3109922168070353  1.0000
  H   H872      1.0  0.28974550213156697  0.223816114917301  0.2997746833862187  1.0000
  C   C1371     1.0  0.3572777435972029  0.19739889830383264  0.3810826791154973  1.0000
  C   C1372     1.0  0.37275844214638043  0.2095711284505099  0.35333932740353624  1.0000
  C   C1373     1.0  0.3934335008164601  0.19832924167113736  0.34221467018783536  1.0000
  C   C1374     1.0  0.39918458253472033  0.17705832659284668  0.3602026057962798  1.0000
  C   C1375     1.0  0.3836296990179155  0.16565146231892616  0.3872323131380501  1.0000
  C   C1376     1.0  0.3624416569087368  0.17554259442734274  0.3966018832423727  1.0000
  C   C1377     1.0  0.3678819967025533  0.2361840825187303  0.3405927511646746  1.0000
  C   C1378     1.0  0.3783845978186877  0.24840051234254595  0.38575039133583583  1.0000
  C   C1379     1.0  0.400928117095544  0.25500844954505636  0.38854350662203696  1.0000
  C   C1380     1.0  0.4092931765470002  0.2671231255519712  0.4262164173221067  1.0000
  C   C1381     1.0  0.39514645899511197  0.27238033596444977  0.46267032783003237  1.0000
  C   C1382     1.0  0.37287353010206215  0.26395208772545564  0.46157425202701213  1.0000
  C   C1383     1.0  0.36458904324079966  0.2520164730921893  0.42350183706229017  1.0000
  C   C1384     1.0  0.37738850277694536  0.22895071808902764  0.25454431295149255  1.0000
  C   C1385     1.0  0.3869932144209993  0.2353040163581884  0.213190499710439  1.0000
  C   C1386     1.0  0.39618553421387903  0.25711313613885545  0.20620395547193515  1.0000
  C   C1387     1.0  0.3957035926283874  0.27256302175217273  0.2418632963868303  1.0000
  C   C1388     1.0  0.3862805917436334  0.26652329066969604  0.2833270586648224  1.0000
  C   C1389     1.0  0.37811342551966487  0.24402039241038279  0.29169445354114987  1.0000
  C   C1390     1.0  0.4095681137351429  0.26501640562928  0.1604685706718922  1.0000
  C   C1391     1.0  0.48120001953803887  0.2653420321023693  0.208461666752175  1.0000
  C   C1392     1.0  0.467391750973382  0.2462334882161841  0.21254617103744855  1.0000
  C   C1393     1.0  0.445260054330949  0.24612259468584724  0.1957837232972408  1.0000
  C   C1394     1.0  0.435531514858437  0.26681818791902046  0.1792155643831759  1.0000
  C   C1395     1.0  0.44881109717681184  0.2867746803174663  0.1814476664156816  1.0000
  C   C1396     1.0  0.47170210592538003  0.2856299459122086  0.19388180983218697  1.0000
  C   C1397     1.0  0.39890714981256  0.28854103743325255  0.14048140645700433  1.0000
  C   C1398     1.0  0.3766829037920362  0.29621852780086855  0.15231117162698452  1.0000
  C   C1399     1.0  0.3683813641330652  0.3173894293240707  0.13775692395473063  1.0000
  C   C1400     1.0  0.38276614964928407  0.331092785796455  0.1125755213860907  1.0000
  C   C1401     1.0  0.40323931089719844  0.3223110865157436  0.09411296105297395  1.0000
  C   C1402     1.0  0.41075127645080994  0.3011620764054018  0.10772820297497686  1.0000
  C   C1403     1.0  0.4289685214051248  0.24526998263878927  0.08970646315952341  1.0000
  C   C1404     1.0  0.4280482074869751  0.23559854089569165  0.04745939935750377  1.0000
  C   C1405     1.0  0.4064348824199273  0.23019876926216798  0.029061523549606783  1.0000
  C   C1406     1.0  0.38650085809412865  0.23391277643370562  0.054085023931274755  1.0000
  C   C1407     1.0  0.3881357974037973  0.24183355945197255  0.0980168347775629  1.0000
  C   C1408     1.0  0.4094898761567505  0.24797190934139068  0.11689050890097134  1.0000
  H   H873      1.0  0.34113204524718427  0.2047575116021216  0.3926956193213286  1.0000
  H   H874      1.0  0.4060475388592683  0.20696514601562302  0.3198024809408448  1.0000
  H   H875      1.0  0.4159061855971851  0.1698258393194709  0.3532232321471415  1.0000
  H   H876      1.0  0.3497514264238679  0.16605279528532912  0.4161605193785097  1.0000
  H   H877      1.0  0.4128784318590993  0.2520413335848201  0.36076600924643043  1.0000
  H   H878      1.0  0.42652204646096953  0.27378073355684757  0.4257793528274444  1.0000
  H   H879      1.0  0.3614114839528837  0.26513480361490527  0.49021904925921417  1.0000
  H   H880      1.0  0.34682506276432323  0.24633057533582228  0.4238432936987451  1.0000
  H   H881      1.0  0.3695901071523592  0.21190757310305208  0.2585250144192839  1.0000
  H   H882      1.0  0.3870049620557161  0.2223865665169842  0.1865404921484065  1.0000
  H   H883      1.0  0.403244797026841  0.2895515774024151  0.23712865866574656  1.0000
  H   H884      1.0  0.38659122212836  0.27904443266245055  0.310937925201839  1.0000
  H   H885      1.0  0.47381251862906254  0.22992807964157266  0.22659164832138465  1.0000
  H   H886      1.0  0.4358542598490504  0.22978198744432574  0.19626415278473283  1.0000
  H   H887      1.0  0.44091715527171615  0.303103799336866  0.1731123684631809  1.0000
  H   H888      1.0  0.48179565520798917  0.3015238451011617  0.19449370012471418  1.0000
  H   H889      1.0  0.36521915926911164  0.2869114236694802  0.17384308566519438  1.0000
  H   H890      1.0  0.3520041435032062  0.3236940932546046  0.15116524315504185  1.0000
  H   H891      1.0  0.41395025862334683  0.3331555769263924  0.07207330099635563  1.0000
  H   H892      1.0  0.4268371421281218  0.2950354478514493  0.09481772755061689  1.0000
  H   H893      1.0  0.4459972731614494  0.2504238077340165  0.10134159804672431  1.0000
  H   H894      1.0  0.44420054662177455  0.2329398046251582  0.028849820435004947  1.0000
  H   H895      1.0  0.3698411621156455  0.23104079733539126  0.03859825818486252  1.0000
  H   H896      1.0  0.37231962213972547  0.2452520549684504  0.11745630254757712  1.0000
  C   C1409     1.0  0.27241631355201396  0.26656025527364174  0.3034747074988441  1.0000
  C   C1410     1.0  0.270063516600314  0.2715873781147508  0.2523142596588056  1.0000
  H   H897      1.0  0.259184582148579  0.25352218152816336  0.31338002306576446  1.0000
  H   H898      1.0  0.26701352263960776  0.2822066071804633  0.3234331893562698  1.0000
  H   H899      1.0  0.2757414076886754  0.25581944397431844  0.23276518430848936  1.0000
  H   H900      1.0  0.28306745436460296  0.28461519749671393  0.24265342704358694  1.0000
  C   C1411     1.0  0.38871337758035485  0.13907995903048756  0.4604781762239919  1.0000
  C   C1412     1.0  0.3898786018183876  0.14172791867308887  0.4079723892363211  1.0000
  H   H901      1.0  0.3747281732531901  0.12690141676158945  0.46763852189045124  1.0000
  H   H902      1.0  0.38287787559648045  0.15544116228809918  0.4775271060821853  1.0000
  H   H903      1.0  0.3778100509018617  0.12932976667966664  0.3926375716931313  1.0000
  H   H904      1.0  0.4076787402154798  0.13646687267290075  0.39684773202062024  1.0000
  C   C1413     1.0  0.4878414447834925  0.016606105063033505  0.6212052295696804  1.0000
  C   C1414     1.0  0.5065457965055707  0.010368971402129779  0.6575396302548471  1.0000
  H   H905      1.0  0.4706850488006767  0.012867871421593291  0.6354132402125691  1.0000
  H   H906      1.0  0.4901262228709568  0.00560080953285591  0.5900985299886385  1.0000
  H   H907      1.0  0.5008249142562151  0.016758002240668812  0.6915726132103074  1.0000
  H   H908      1.0  0.5230956074418074  0.01913628730193495  0.6492285757235345  1.0000
  C   C1415     1.0  0.6240839602210692  0.8759607353344121  0.683230827581714  1.0000
  C   C1416     1.0  0.6030362956061454  0.8756345143381119  0.7153004348775588  1.0000
  H   H909      1.0  0.6330656406076032  0.8930296158034416  0.6831318051571421  1.0000
  H   H910      1.0  0.6181661284848249  0.8734138821462055  0.6474051972848653  1.0000
  H   H911      1.0  0.6003698002828823  0.8574618360098993  0.7289382129375677  1.0000
  H   H912      1.0  0.6069538926644897  0.8862739748583082  0.7462705518040187  1.0000
  C   C1417     1.0  0.7870919873749048  0.7903729150763995  0.7846912525379246  1.0000
  C   C1418     1.0  0.7715386085853878  0.7957039262814398  0.8263353039199649  1.0000
  H   H913      1.0  0.7893991797075111  0.8067847833598164  0.7665599051421692  1.0000
  H   H914      1.0  0.7781359177153298  0.7795286205076918  0.758928349317402  1.0000
  H   H915      1.0  0.7734904052732088  0.7818818901365984  0.853382084093558  1.0000
  H   H916      1.0  0.7780406652162946  0.8115098762043144  0.843326186149961  1.0000
  C   C1419     1.0  0.14863402953498822  0.39399659037197443  0.09374384642896622  1.0000
  C   C1420     1.0  0.164425648936729  0.3857620978629999  0.1325159060417843  1.0000
  H   H917      1.0  0.13699502502346234  0.37937287067950676  0.08513265151420994  1.0000
  H   H918      1.0  0.1582642183429466  0.3970537862321764  0.06195013609537705  1.0000
  H   H919      1.0  0.16051937324008736  0.3938698248954424  0.16627743097126305  1.0000
  H   H920      1.0  0.18223478289189798  0.39257208558026413  0.1266110964275696  1.0000
  C   C1421     1.0  0.9022965308423759  0.6409573458046053  0.8907237818562664  1.0000
  C   C1422     1.0  0.8954903113589271  0.650913108858675  0.8439886120246837  1.0000
  H   H921      1.0  0.8950552225068547  0.6232057814407674  0.8951968637938257  1.0000
  H   H922      1.0  0.8938351127443398  0.6512634035717136  0.9185490831609767  1.0000
  H   H923      1.0  0.878975874905689  0.6431665312038963  0.830695705167494  1.0000
  H   H924      1.0  0.9092229280611233  0.645385465772598  0.8200217707119137  1.0000
  C   C1423     1.0  0.04098340735213702  0.5405961348592389  0.9596775350219701  1.0000
  C   C1424     1.0  0.06462774594885715  0.5402494559014107  0.9857477492153022  1.0000
  H   H925      1.0  0.028755658019065544  0.530909168268869  0.9809536980394753  1.0000
  H   H926      1.0  0.041367855029005765  0.5305996384734111  0.9269386727186737  1.0000
  H   H927      1.0  0.0798360857291402  0.5398555076248194  0.961275552080579  1.0000
  H   H928      1.0  0.06751988051649543  0.5565623702881742  0.005139071599576273  1.0000
  C   C1425     1.0  0.6305353030379374  0.18980483457077044  0.628939222385384  1.0000
  C   C1426     1.0  0.6430706733603101  0.21117346510792237  0.6068196614758353  1.0000
  H   H929      1.0  0.6371101244761673  0.1750414638425557  0.6089981548164176  1.0000
  H   H930      1.0  0.6377207087573384  0.186732311036651  0.6633512222073095  1.0000
  H   H931      1.0  0.6340995765223656  0.21563116678663963  0.5753988217892548  1.0000
  H   H932      1.0  0.6609449999358555  0.20625997566666784  0.5951862338718167  1.0000
  C   C1427     1.0  0.9693520546567822  0.31574845129182705  0.9256377229337805  1.0000
  C   C1428     1.0  0.9728925951450654  0.3167445875097397  0.9780137563995984  1.0000
  H   H933      1.0  0.970887131431262  0.3334986990638641  0.9107775301152631  1.0000
  H   H934      1.0  0.9840759254248501  0.30742800589627584  0.909036101269343  1.0000
  H   H935      1.0  0.9779412845644925  0.29882845824113136  0.9901457106928413  1.0000
  H   H936      1.0  0.9563048341401656  0.3198943363300444  0.9967665548737019  1.0000
  C   C1429     1.0  0.7677689483624853  0.27799559116627925  0.738468267661024  1.0000
  C   C1430     1.0  0.7738685688009452  0.26186360981501505  0.7799928092203051  1.0000
  H   H937      1.0  0.756146786351555  0.2922261786697937  0.7498387736549725  1.0000
  H   H938      1.0  0.7581444817339087  0.2680523100626002  0.7113122213637655  1.0000
  H   H939      1.0  0.7855013846478671  0.2721985067719831  0.8024879724299543  1.0000
  H   H940      1.0  0.7838934706212086  0.24637471823181517  0.7696739896666379  1.0000
  C   C1431     1.0  0.05475639397588593  0.4876671725282658  0.3288903493200921  1.0000
  C   C1432     1.0  0.038803341808924384  0.49186028934389964  0.28671396704181856  1.0000
  H   H941      1.0  0.07295417257475127  0.48865877790245227  0.3209842623596152  1.0000
  H   H942      1.0  0.05180561627721688  0.5027630055088921  0.35298079793525855  1.0000
  H   H943      1.0  0.038164611629116475  0.5109814665978136  0.28100037314401866  1.0000
  H   H944      1.0  0.020681452059114314  0.4862779084675164  0.29456712822364495  1.0000
  C   C1433     1.0  0.011643510691892178  0.4271680473177925  0.8014875044851415  1.0000
  C   C1434     1.0  0.026583603211307594  0.423043973076337  0.7598946715985695  1.0000
  H   H945      1.0  0.994119897048646  0.41882635016899566  0.7975470949004518  1.0000
  H   H946      1.0  0.007825423187565406  0.44610396166388294  0.8058683931308579  1.0000
  H   H947      1.0  0.041533668851025635  0.4353715325804799  0.7587746938309973  1.0000
  H   H948      1.0  0.034531816211693434  0.40527062411474873  0.7610726969943389  1.0000
  C   C1435     1.0  0.14110631486105907  0.3862034746068245  0.4654429557180462  1.0000
  C   C1436     1.0  0.14743018527886814  0.3657948669671348  0.4990183867806571  1.0000
  H   H949      1.0  0.14681196159645227  0.40310463694942644  0.4799685210328379  1.0000
  H   H950      1.0  0.15102052210315664  0.38419048245463255  0.4329875024230075  1.0000
  H   H951      1.0  0.1362614439883444  0.36572313218542607  0.5291792514787189  1.0000
  H   H952      1.0  0.16510409370305124  0.3678763148045634  0.5124888510888032  1.0000
  C   C1437     1.0  0.8843486998433706  0.42058002630129093  0.5943496651125022  1.0000
  C   C1438     1.0  0.8737316997828638  0.4156138992772958  0.6411941010677505  1.0000
  H   H953      1.0  0.875854611388927  0.4362590596233517  0.5810362708571254  1.0000
  H   H954      1.0  0.8781472221366912  0.40713411694443624  0.5711032973026522  1.0000
  H   H955      1.0  0.8575701838583397  0.42613714950709974  0.6443662332204166  1.0000
  H   H956      1.0  0.8844770283360738  0.4230169191474493  0.6691833015579592  1.0000
  C   C1439     1.0  0.041920469222250074  0.6869397414183751  0.7751919289117493  1.0000
  C   C1440     1.0  0.06714129130426053  0.6796223628144016  0.7650574959417676  1.0000
  H   H957      1.0  0.041385329534288307  0.7055558662394563  0.780395728051322  1.0000
  H   H958      1.0  0.030149141208840602  0.6832955252100232  0.7456866609556808  1.0000
  H   H959      1.0  0.06976643429905358  0.6612662519457474  0.7714290767780162  1.0000
  H   H960      1.0  0.07877122324266946  0.6878450104413164  0.7900555362966312  1.0000
  C   C1441     1.0  0.022798124820048615  0.5856200403705446  0.2536660864825306  1.0000
  C   C1442     1.0  0.016445153724523376  0.592246175335084  0.30330432063725304  1.0000
  H   H961      1.0  0.007746537302289358  0.5752759693015216  0.24150613274509847  1.0000
  H   H962      1.0  0.03744160710152533  0.5737369006248768  0.253008099544082  1.0000
  H   H963      1.0  0.002630277690972793  0.6065072968700288  0.30273408805437335  1.0000
  H   H964      1.0  0.007715966707080302  0.5774144237482759  0.3199141372609655  1.0000
  C   C1443     1.0  0.005965352152657255  0.7549173639963557  0.5737495862351777  1.0000
  C   C1444     1.0  0.9960683537437294  0.7524429563229934  0.6222227703463161  1.0000
  H   H965      1.0  0.9927669803215169  0.7504344364659555  0.5473276717062971  1.0000
  H   H966      1.0  0.00962198298496042  0.7736522294105744  0.566244369365899  1.0000
  H   H967      1.0  0.008181199160875785  0.7602381648863271  0.6484534691587819  1.0000
  H   H968      1.0  0.9951417833135431  0.7341047504641575  0.6335762035084417  1.0000
  C   C1445     1.0  0.03134022952967008  0.5160830470701523  0.4957506467697837  1.0000
  C   C1446     1.0  0.0538081571773451  0.5257974784933535  0.5198369979053127  1.0000
  H   H969      1.0  0.03549217454775644  0.5119615496604158  0.4595733161373864  1.0000
  H   H970      1.0  0.018540826570919933  0.5303282332392568  0.4948526158159072  1.0000
  H   H971      1.0  0.06799708320502458  0.5136885497431494  0.5221315865022896  1.0000
  H   H972      1.0  0.050016677999105696  0.5297693330535671  0.5561782277232082  1.0000
  C   C1447     1.0  0.518364551604695  0.7854728288120071  0.32685663359336664  1.0000
  C   C1448     1.0  0.5354953459650743  0.7832087995445507  0.3683395174430002  1.0000
  H   H973      1.0  0.5189827284769053  0.769581335129723  0.30523730665622434  1.0000
  H   H974      1.0  0.5248813338655776  0.7983899062840466  0.3028075012312112  1.0000
  H   H975      1.0  0.5524176004457232  0.7758246783097779  0.35749826923555694  1.0000
  H   H976      1.0  0.5283343939999654  0.7696805010505634  0.39028493546795695  1.0000
  C   C1449     1.0  0.1822248156599522  0.6705768181630061  0.42882173145825764  1.0000
  C   C1450     1.0  0.18132493301878702  0.6468642560212957  0.40532610030379557  1.0000
  H   H977      1.0  0.170207626521632  0.6705842881147629  0.4578455455569246  1.0000
  H   H978      1.0  0.1991822940999004  0.6726850410946306  0.44529359960084225  1.0000
  H   H979      1.0  0.19462851231367356  0.6345956787214364  0.4192609456375203  1.0000
  H   H980      1.0  0.1858519663383312  0.6480433293704106  0.36825073871752195  1.0000
  C   C1451     1.0  0.15830256604347928  0.660995493233689  0.09772898683303141  1.0000
  C   C1452     1.0  0.1446343257156368  0.647992120726817  0.1336795902588226  1.0000
  H   H981      1.0  0.1763808567018169  0.6548892397869265  0.095082014987233  1.0000
  H   H982      1.0  0.15104347532111273  0.6568769204399075  0.06303528528603074  1.0000
  H   H983      1.0  0.15091937754255802  0.6526704115983594  0.1692255675704147  1.0000
  H   H984      1.0  0.14973138068699032  0.6290639447420533  0.13245102928085783  1.0000
  C   C1453     1.0  0.2769252575454591  0.8241155269038781  0.3501057330563082  1.0000
  C   C1454     1.0  0.2740043095754953  0.8018396430565937  0.37889735664218593  1.0000
  H   H985      1.0  0.2691388700625329  0.8387743445594827  0.36997168016525467  1.0000
  H   H986      1.0  0.26585490421359365  0.8234426155358705  0.31868694210954657  1.0000
  H   H987      1.0  0.2783465153241722  0.806375175333261  0.41450445469170344  1.0000
  H   H988      1.0  0.2869325681926694  0.7891259409610916  0.3697019294224553  1.0000
  C   C1455     1.0  0.4725581064135123  0.09679696615093189  0.29361309838138994  1.0000
  C   C1456     1.0  0.49032057692890885  0.084350631507816  0.32618123236645885  1.0000
  H   H989      1.0  0.46079956697316504  0.08402824541057533  0.27591813256702385  1.0000
  H   H990      1.0  0.45994679337249395  0.10787145160859389  0.3121156091409719  1.0000
  H   H991      1.0  0.5079031335716678  0.0885575663248609  0.3137822589835083  1.0000
  H   H992      1.0  0.48942406812081657  0.06506964868701187  0.32084289931212284  1.0000
  C   C1457     1.0  0.5529915059609765  0.17735060327219976  0.8490387556778517  1.0000
  C   C1458     1.0  0.5272482201634964  0.176200137432552  0.8346292856194546  1.0000
  H   H993      1.0  0.5583694291856879  0.19562280250712027  0.8510055459038318  1.0000
  H   H994      1.0  0.5646623870507373  0.17135678848152583  0.8218485637169475  1.0000
  H   H995      1.0  0.5195819240632765  0.15943481842988375  0.8474065929555972  1.0000
  H   H996      1.0  0.5167690133401365  0.18980062902721595  0.8529859943952702  1.0000
  C   C1459     1.0  0.5202701901090371  0.2525167703248475  0.17511637746253475  1.0000
  C   C1460     1.0  0.5072829106177692  0.26196678299628534  0.21704759387583358  1.0000
  H   H997      1.0  0.5361267467431894  0.2627532670557609  0.17030832656461323  1.0000
  H   H998      1.0  0.5102756726370307  0.2570178719611175  0.14352139489136234  1.0000
  H   H999      1.0  0.5150367028257131  0.27890901106753596  0.2262877519149398  1.0000
  H   H1000     1.0  0.5104699166939187  0.2507846310268641  0.2480737096906721  1.0000
  C   C1461     1.0  0.6775320238406772  0.1273461526407135  0.9845219198904289  1.0000
  C   C1462     1.0  0.6832212497401268  0.13454491658418358  0.9352326544181635  1.0000
  H   H1001     1.0  0.6854682349553349  0.13923039093284703  0.010144825890005205  1.0000
  H   H1002     1.0  0.6861654077824344  0.1104968091025611  0.99151836637139  1.0000
  H   H1003     1.0  0.6693075847486584  0.12867164626137703  0.9117916563255342  1.0000
  H   H1004     1.0  0.6984982539421818  0.1249036006470854  0.9229026552757769  1.0000
  C   C1463     1.0  0.41641819466501906  0.8765155105534334  0.7586927442382482  1.0000
  C   C1464     1.0  0.4302829329541597  0.8653320507063881  0.7203744804952787  1.0000
  H   H1005     1.0  0.39936798296913456  0.8673945549104449  0.7646887227743963  1.0000
  H   H1006     1.0  0.41127849265959326  0.8940744128808741  0.7484831908082465  1.0000
  H   H1007     1.0  0.4365113781980451  0.8477529947473718  0.7293343026358554  1.0000
  H   H1008     1.0  0.4178587098589609  0.8628015744034683  0.6919823611740532  1.0000
  C   C1465     1.0  0.4998461277060353  0.9072325569709155  0.26015888442472057  1.0000
  C   C1466     1.0  0.48591651704885847  0.9164590303487002  0.3013119211635387  1.0000
  H   H1009     1.0  0.5001188143223311  0.8882486844730838  0.2611559378031689  1.0000
  H   H1010     1.0  0.5178023494175257  0.9130067654516597  0.2657317981883011  1.0000
  H   H1011     1.0  0.48548248722958975  0.9354610301591968  0.2990234787860179  1.0000
  H   H1012     1.0  0.4677472128065081  0.9112137490420769  0.29947386008950194  1.0000
  C   C1467     1.0  0.5615482546229146  0.9059440908561827  0.8152516215006387  1.0000
  C   C1468     1.0  0.5808458500611887  0.8960742228958056  0.8473997638228681  1.0000
  H   H1013     1.0  0.5626726696068635  0.8966907229229992  0.7818674061544426  1.0000
  H   H1014     1.0  0.5649995187844807  0.9242693863966246  0.8073639731985304  1.0000
  H   H1015     1.0  0.5979484547747065  0.9042206457798916  0.8401438102982014  1.0000
  H   H1016     1.0  0.5770881472461972  0.9028155102875163  0.8820132230603018  1.0000
  C   C1469     1.0  0.37201673223236  0.9499678408892848  0.16102412061940433  1.0000
  C   C1470     1.0  0.3707652460489158  0.9496183949860953  0.21420052844107257  1.0000
  H   H1017     1.0  0.3655327874068955  0.9670857731136969  0.1503665760823738  1.0000
  H   H1018     1.0  0.3600127009565025  0.9372167965250111  0.14649548219488456  1.0000
  H   H1019     1.0  0.35531673666559666  0.9586843037692834  0.2265329177799144  1.0000
  H   H1020     1.0  0.3857763924249517  0.9592436248202381  0.22907130641532017  1.0000
  C   C1471     1.0  0.5134710933038684  0.028968018971222698  0.053829614367206485  1.0000
  C   C1472     1.0  0.5317364573274608  0.030480712727618098  0.016079342231591465  1.0000
  H   H1021     1.0  0.500404532681128  0.043154630885614824  0.048480354700503936  1.0000
  H   H1022     1.0  0.5216777142540472  0.03239838351049462  0.0881535183769265  1.0000
  H   H1023     1.0  0.5240157496123182  0.026623948735906566  0.9821078214706929  1.0000
  H   H1024     1.0  0.5446237112576501  0.016052035588306035  0.01837393082856842  1.0000
  C   C1473     1.0  0.7162837935502517  0.23924431904108065  0.11605154994520164  1.0000
  C   C1474     1.0  0.715760497118828  0.2615537541818349  0.08783903681475154  1.0000
  H   H1025     1.0  0.7341022673603187  0.23646712006515652  0.12988020226498886  1.0000
  H   H1026     1.0  0.7128688859852237  0.2237728832136142  0.09486314128326538  1.0000
  H   H1027     1.0  0.7035534671965326  0.27491320417736353  0.10094072795552625  1.0000
  H   H1028     1.0  0.7337072887226482  0.2700218124979638  0.09081107537845504  1.0000
  C   C1475     1.0  0.6640457052459535  0.3099646139451694  0.5934926089550003  1.0000
  C   C1476     1.0  0.6668248135317097  0.33325037521074924  0.6212052295696804  1.0000
  H   H1029     1.0  0.6761233520078503  0.29720293318566315  0.6093054657892271  1.0000
  H   H1030     1.0  0.6460194224566446  0.3021491258950517  0.5986144585018238  1.0000
  H   H1031     1.0  0.6563067292790719  0.34775389471050416  0.6057509022037315  1.0000
  H   H1032     1.0  0.6850336977346339  0.33810883555165694  0.618429187115302  1.0000
  C   C1477     1.0  0.6355278011420007  0.15017351379343027  0.3017476198316552  1.0000
  C   C1478     1.0  0.614927513620545  0.1416993247721916  0.3301810554058916  1.0000
  H   H1033     1.0  0.6374393313335315  0.13925855519578426  0.27036024289544736  1.0000
  H   H1034     1.0  0.6516089867843954  0.14567679979433526  0.32202809529725784  1.0000
  H   H1035     1.0  0.6125556503162961  0.15233787191498677  0.3619713511731162  1.0000
  H   H1036     1.0  0.6182333424142448  0.12375600216873663  0.34555753065872896  1.0000
  C   C1479     1.0  0.9013263840491421  0.2774763347295663  0.5197243172152826  1.0000
  C   C1480     1.0  0.8956567679176026  0.2925953302957811  0.4767656577828909  1.0000
  H   H1037     1.0  0.9200679553337153  0.2740699139191703  0.5241632534891963  1.0000
  H   H1038     1.0  0.8944139556864305  0.25965548964794555  0.5137556552100508  1.0000
  H   H1039     1.0  0.8772326275327503  0.2969141961991573  0.47653346727010154  1.0000
  H   H1040     1.0  0.9041317687699728  0.3096660758930742  0.4790056133180351  1.0000
  C   C1481     1.0  0.8100712093017969  0.30631796258366517  0.9955509692479224  1.0000
  C   C1482     1.0  0.796197112165397  0.2873990455208651  0.021221679176602226  1.0000
  H   H1041     1.0  0.8184830570570979  0.3181896616953171  0.021173875247498586  1.0000
  H   H1042     1.0  0.7980595508284691  0.3177595261784578  0.9775288879758326  1.0000
  H   H1043     1.0  0.7876885093505208  0.2756697725483789  0.9951207338859893  1.0000
  H   H1044     1.0  0.7818249332744673  0.2965032323838215  0.03978550290981622  1.0000
  C   C1483     1.0  0.9866045771101423  0.32591767196379223  0.33195594700218417  1.0000
  C   C1484     1.0  0.9896074777810195  0.32190533094920815  0.2797864948014215  1.0000
  H   H1045     1.0  0.9684700012815122  0.3310534934832988  0.3384856222611114  1.0000
  H   H1046     1.0  0.9886359117196813  0.30930032876197944  0.350122805888131  1.0000
  H   H1047     1.0  0.007104371838238643  0.31595523570556716  0.2742262149333898  1.0000
  H   H1048     1.0  0.987314841451097  0.33796292721142135  0.260731165747419  1.0000
  C   C1485     1.0  0.7674878177322108  0.270930723644702  0.3264588366118967  1.0000
  C   C1486     1.0  0.7608861192403801  0.24962478939416502  0.29834671173256433  1.0000
  H   H1049     1.0  0.7766918666683765  0.28281613197982647  0.3037536775708278  1.0000
  H   H1050     1.0  0.7798148674016406  0.26550891378691527  0.35440467210927556  1.0000
  H   H1051     1.0  0.7444042411668012  0.2522959370131561  0.27819598978881455  1.0000
  H   H1052     1.0  0.7565673974091697  0.23507117475632586  0.3230510993800767  1.0000
  C   C1487     1.0  0.6487818144831915  0.41991087008052075  0.45843968010435615  1.0000
  C   C1488     1.0  0.6547912362551793  0.4147364174535485  0.4078323920153746  1.0000
  H   H1053     1.0  0.6536746039097089  0.4379887662684475  0.4657161210272101  1.0000
  H   H1054     1.0  0.660115696589518  0.4095517304884104  0.48198311518792186  1.0000
  H   H1055     1.0  0.6687613189852406  0.4269006479894107  0.3984491636455938  1.0000
  H   H1056     1.0  0.6412176088771652  0.4192114125574573  0.3828104496959591  1.0000
  C   C1489     1.0  0.5220631982088412  0.27748993052695425  0.7595429712630208  1.0000
  C   C1490     1.0  0.536268071813804  0.27354345494099436  0.8052606003179682  1.0000
  H   H1057     1.0  0.5042341036574419  0.27362848898022046  0.7655696808964499  1.0000
  H   H1058     1.0  0.5278451769314898  0.26492055110240365  0.7325917989476352  1.0000
  H   H1059     1.0  0.532012744033309  0.25620707866698883  0.819345686571733  1.0000
  H   H1060     1.0  0.5305066645633584  0.2866259433760135  0.8292137833652798  1.0000
  C   C1491     1.0  0.3854491247547489  0.739341328980337  0.5284041449139663  1.0000
  C   C1492     1.0  0.38336014166933974  0.7156990394882955  0.501306146244905  1.0000
  H   H1061     1.0  0.39393783527242626  0.7373423116045035  0.5615220240837275  1.0000
  H   H1062     1.0  0.3672254334606246  0.7444569399210538  0.535796681093215  1.0000
  H   H1063     1.0  0.3696521791769709  0.7048787381633153  0.5165521850626165  1.0000
  H   H1064     1.0  0.37777369518841203  0.7179423513803314  0.46441858580868156  1.0000
  C   C1493     1.0  0.515594615873649  0.49337468598124795  0.630841135850438  1.0000
  C   C1494     1.0  0.4942077406018572  0.5032563422583394  0.6047401905598249  1.0000
  H   H1065     1.0  0.5110354878567543  0.4904288557575072  0.6668852983946177  1.0000
  H   H1066     1.0  0.5293496505468347  0.5068895118043971  0.6313123460087458  1.0000
  H   H1067     1.0  0.47951378991418636  0.49159252614226095  0.6104937348840901  1.0000
  H   H1068     1.0  0.4982658972585086  0.5023317613574655  0.5678423864245078  1.0000
  C   C1495     1.0  0.9115860074626648  0.1526992803348543  0.19756100508998858  1.0000
  C   C1496     1.0  0.8920877066693605  0.14766013204767145  0.16135021170721875  1.0000
  H   H1069     1.0  0.9087739753352  0.14295585690228965  0.22950051740734398  1.0000
  H   H1070     1.0  0.9102886335946823  0.1709247920105304  0.2084647398619031  1.0000
  H   H1071     1.0  0.884530358177734  0.1307911246700173  0.16705595210238025  1.0000
  H   H1072     1.0  0.8997417549361534  0.14584838282919108  0.12770170892440658  1.0000
  C   C1497     1.0  0.8778488581442896  0.17194409145002848  0.872145126266755  1.0000
  C   C1498     1.0  0.8963044285219186  0.16062420948060477  0.8422710851433154  1.0000
  H   H1073     1.0  0.8787343961134945  0.16417420529539567  0.906499078460483  1.0000
  H   H1074     1.0  0.8606437072113331  0.16576969554721116  0.8596102531424955  1.0000
  H   H1075     1.0  0.8928860117484727  0.14158702985903598  0.8390989529906494  1.0000
  H   H1076     1.0  0.8950928517363308  0.16802839153012455  0.808381513975166  1.0000
  C   C1499     1.0  0.04641295539366203  0.8009383665227128  0.10259167079278572  1.0000
  C   C1500     1.0  0.05297713589682437  0.7931478766669516  0.1521667354697641  1.0000
  H   H1077     1.0  0.028227094453010748  0.7956584456942332  0.09444178379388003  1.0000
  H   H1078     1.0  0.057690106421974835  0.7925052320110995  0.0757118629144191  1.0000
  H   H1079     1.0  0.04981834102103262  0.8070012861647705  0.17975199275904652  1.0000
  H   H1080     1.0  0.041181595180819756  0.7795123699727076  0.16197132132893025  1.0000
  C   C1501     1.0  0.06433376392879732  0.050269573932335915  0.07469227339796476  1.0000
  C   C1502     1.0  0.045608045697421655  0.04985773612834302  0.11208826276586954  1.0000
  H   H1081     1.0  0.08040320167179113  0.05873071593301474  0.0858077112844813  1.0000
  H   H1082     1.0  0.05725782200400016  0.06048670975249579  0.046041329946306546  1.0000
  H   H1083     1.0  0.0320967896159432  0.03705171074620686  0.10395852170851472  1.0000
  H   H1084     1.0  0.05401760985118762  0.04374375282881027  0.14386455881099952  1.0000
  C   C1503     1.0  0.37094480429012716  0.8299395009571808  0.04243827951843439  1.0000
  C   C1504     1.0  0.37778209605502255  0.8150519222625542  0.08513401734075576  1.0000
  H   H1085     1.0  0.378406202422081  0.8474275025519112  0.04596347783319483  1.0000
  H   H1086     1.0  0.3517893175291007  0.8324888530953793  0.039901598166210896  1.0000
  H   H1087     1.0  0.396148564002811  0.8094315163161644  0.08242968078003292  1.0000
  H   H1088     1.0  0.3682509774659144  0.7981747370794651  0.08320512880142202  1.0000
  C   C1505     1.0  0.46401912715123894  0.8133432547002851  0.6155916824663619  1.0000
  C   C1506     1.0  0.45733692587532976  0.8369465316992443  0.5937657742641642  1.0000
  H   H1089     1.0  0.4780265646557504  0.8172449109540665  0.6403404594766133  1.0000
  H   H1090     1.0  0.47332614937119694  0.8031264718871024  0.5905219362178427  1.0000
  H   H1091     1.0  0.44315046371538175  0.8459799185641634  0.6133619706303113  1.0000
  H   H1092     1.0  0.47174017582124134  0.8493865546788497  0.598273001865369  1.0000
  C   C1507     1.0  0.5060863080650772  0.7760050610642379  0.9331497689357884  1.0000
  C   C1508     1.0  0.5056472416931141  0.7885362555687673  0.9799190844310169  1.0000
  H   H1093     1.0  0.5151951983999666  0.786914356046362  0.9072024791315803  1.0000
  H   H1094     1.0  0.5162226465759842  0.7596522757096528  0.9358302035319594  1.0000
  H   H1095     1.0  0.5234759977180901  0.7875192205540247  0.9952470728414775  1.0000
  H   H1096     1.0  0.4946685320690284  0.7787312755787665  0.003896169442880293  1.0000
  C   C1509     1.0  0.3797723896571274  0.6649865886673894  0.6386809802234426  1.0000
  C   C1510     1.0  0.3780480735623204  0.64454332695378  0.6724783580997491  1.0000
  H   H1097     1.0  0.36439152280980386  0.6654786480186402  0.6158375312446093  1.0000
  H   H1098     1.0  0.393853629250519  0.6628691347676454  0.6150009624852948  1.0000
  H   H1099     1.0  0.3619286829616663  0.6351551467189628  0.6622244153070084  1.0000
  H   H1100     1.0  0.3739025624359165  0.6510933539334844  0.7074810779027414  1.0000
  C   C1511     1.0  0.20921771852585694  0.8030937891842058  0.9732333634892298  1.0000
  C   C1512     1.0  0.1966043539977113  0.8174571911076942  0.011384313480336417  1.0000
  H   H1101     1.0  0.19937556185177516  0.786284147492565  0.9686476008616404  1.0000
  H   H1102     1.0  0.22666242392647568  0.7976888176284769  0.9851672729333288  1.0000
  H   H1103     1.0  0.18336098256419608  0.8292329868654003  0.9953631680978723  1.0000
  H   H1104     1.0  0.2084676873815414  0.8295019178349915  0.02904103615141973  1.0000
  C   C1513     1.0  0.12193286529631758  0.8372729760898545  0.43748790089148315  1.0000
  C   C1514     1.0  0.1362147956402037  0.85601780115747  0.46431273425138053  1.0000
  H   H1105     1.0  0.10782873874326755  0.831143240621706  0.45999330780022596  1.0000
  H   H1106     1.0  0.11210690288216553  0.8465426012671593  0.4104513644169837  1.0000
  H   H1107     1.0  0.12701308103219192  0.8727047141592541  0.461318159549671  1.0000
  H   H1108     1.0  0.15274314502657574  0.859345171588016  0.4481003731525016  1.0000
  C   C1515     1.0  0.189632118435067  0.7441329792453963  0.5204686926827542  1.0000
  C   C1516     1.0  0.18267491977704287  0.7183730829917655  0.5197311463480117  1.0000
  H   H1109     1.0  0.18547215472468892  0.7521033048329998  0.4867532643991969  1.0000
  H   H1110     1.0  0.20889735841671378  0.7447731457981258  0.5239276484100425  1.0000
  H   H1111     1.0  0.19447580493368122  0.7083947744043075  0.5425609370613866  1.0000
  H   H1112     1.0  0.18607432603884988  0.711135335958278  0.48497086075690227  1.0000
  C   C1517     1.0  0.1825908678697857  0.9504052448775109  0.8515143162921497  1.0000
  C   C1518     1.0  0.17793928590676533  0.9529838154925275  0.9030913412286632  1.0000
  H   H1113     1.0  0.1967029463880281  0.9628126839498162  0.8435515475300213  1.0000
  H   H1114     1.0  0.16712735285991842  0.9552721813218558  0.8309756996093872  1.0000
  H   H1115     1.0  0.18764733302982312  0.9684690599758136  0.9175725171807156  1.0000
  H   H1116     1.0  0.18496368624410026  0.9376627909829537  0.9220148680209941  1.0000
  C   C1519     1.0  0.30600056488912525  0.843421261243803  0.7199818053633555  1.0000
  C   C1520     1.0  0.30760579854386005  0.8260622321782741  0.6794509026161581  1.0000
  H   H1117     1.0  0.3141352276728063  0.8602607916597232  0.7118175771857187  1.0000
  H   H1118     1.0  0.3171467784057401  0.837238688762882  0.7482988042245609  1.0000
  H   H1119     1.0  0.30856548551771956  0.8358132715685958  0.6467974044719756  1.0000
  H   H1120     1.0  0.2915493662492196  0.815585886794232  0.6761319441098166  1.0000
  C   C1521     1.0  0.5634284755010467  0.3057099490841242  0.18501896137636345  1.0000
  C   C1522     1.0  0.5575959322367658  0.30587941680147884  0.13327632997116934  1.0000
  H   H1121     1.0  0.5688750441529281  0.32314280572733944  0.19582947848652577  1.0000
  H   H1122     1.0  0.5479584493693337  0.3014155141123745  0.20496890681787774  1.0000
  H   H1123     1.0  0.551240631070882  0.28882079089787094  0.12221108621021168  1.0000
  H   H1124     1.0  0.5731467844029798  0.30872799206474716  0.11286132059080345  1.0000
  C   C1523     1.0  0.5003557411323443  0.3974034010940199  0.3693468145205422  1.0000
  C   C1524     1.0  0.5140899272827574  0.4082321429747049  0.32974160071477415  1.0000
  H   H1125     1.0  0.49589395525058844  0.37917208321279255  0.36404740752276205  1.0000
  H   H1126     1.0  0.4832200576021723  0.4057595480004211  0.3739359917144961  1.0000
  H   H1127     1.0  0.5130142973985057  0.42719113592136976  0.3324882778984174  1.0000
  H   H1128     1.0  0.5323102247118753  0.40290044341087417  0.3330984609077623  1.0000
  C   C1525     1.0  0.5977744099191796  0.4106642875140701  0.8987582565120504  1.0000
  C   C1526     1.0  0.605379189048665  0.413913157977206  0.8496226465261896  1.0000
  H   H1129     1.0  0.6109197797120957  0.41924834934817773  0.9205329462187797  1.0000
  H   H1130     1.0  0.5997235642044464  0.3920443291910049  0.9062190840185901  1.0000
  H   H1131     1.0  0.6227010650112083  0.4066275007735084  0.8465085620017208  1.0000
  H   H1132     1.0  0.6090177610118964  0.43239377573580723  0.8421413316214625  1.0000
  C   C1527     1.0  0.37793706265551075  0.3573318373350299  0.10923129508865137  1.0000
  C   C1528     1.0  0.3863861715663102  0.37004032365575007  0.1533819796389071  1.0000
  H   H1133     1.0  0.3857149261532205  0.36513917029237825  0.07859443983937142  1.0000
  H   H1134     1.0  0.35875785857505177  0.36019492710813017  0.10701831462778712  1.0000
  H   H1135     1.0  0.3779332969423179  0.38746570095810606  0.15699698104905518  1.0000
  H   H1136     1.0  0.38047888346912156  0.360260928264472  0.1832355333641595  1.0000
  C   C1529     1.0  0.3933918791197382  0.660482771369205  0.016311532744380797  1.0000
  C   C1530     1.0  0.381921187583328  0.6842901525199597  0.027675209605600104  1.0000
  H   H1137     1.0  0.3892046858367272  0.6480858809055646  0.04405488445634176  1.0000
  H   H1138     1.0  0.38373439067597137  0.6542148998303472  0.9857067744189275  1.0000
  H   H1139     1.0  0.38714579404236305  0.6878991838360953  0.06301343206129763  1.0000
  H   H1140     1.0  0.363213814388906  0.6819802881511482  0.029150302275085194  1.0000
  C   C1531     1.0  0.5289127617026521  0.5777592664487667  0.8506470164355542  1.0000
  C   C1532     1.0  0.5371308664179704  0.5830391905054119  0.8020167622716465  1.0000
  H   H1141     1.0  0.5442495388163597  0.5702050285090785  0.8688944590877044  1.0000
  H   H1142     1.0  0.5160444963924654  0.5638217742332833  0.8508416467183335  1.0000
  H   H1143     1.0  0.5487510196274791  0.5685680971719881  0.7904311385967316  1.0000
  H   H1144     1.0  0.5494362129733362  0.5977180499356648  0.8055201073616739  1.0000
  C   C1533     1.0  0.5154083176219609  0.6364501817413122  0.34469023080213346  1.0000
  C   C1534     1.0  0.5291271219089654  0.6536714224903742  0.3150750138091266  1.0000
  H   H1145     1.0  0.50093847259449  0.6297686460213995  0.32385659558547386  1.0000
  H   H1146     1.0  0.5263984048807206  0.6208192154835921  0.3527622656879274  1.0000
  H   H1147     1.0  0.5458039067900948  0.6581128236022179  0.33091655300081546  1.0000
  H   H1148     1.0  0.5196603073331086  0.6705501072488187  0.3123324341051208  1.0000
  C   C1535     1.0  0.5043325693258192  0.7269712441617329  0.8212680874349741  1.0000
  C   C1536     1.0  0.5260031810039787  0.7278207124593359  0.790178460685755  1.0000
  H   H1149     1.0  0.4892110729971151  0.7277382047493891  0.7980934255187797  1.0000
  H   H1150     1.0  0.5021518594629814  0.7433136260832918  0.8404852669346562  1.0000
  H   H1151     1.0  0.5197673943271295  0.7324701217170422  0.7545611189371437  1.0000
  H   H1152     1.0  0.5336039858108786  0.7102673705239041  0.7855209921645101  1.0000
  C   C1537     1.0  0.5560545346946315  0.5431399119913024  0.0394184370256272  1.0000
  C   C1538     1.0  0.5316613592972336  0.5408372680245515  0.019647564082545088  1.0000
  H   H1153     1.0  0.5687455506356567  0.5401783343783988  0.012309660965129199  1.0000
  H   H1154     1.0  0.5594211207524226  0.5296912219434802  0.06510109793658292  1.0000
  H   H1155     1.0  0.5292066915870068  0.5511470981018505  0.9866833403991886  1.0000
  H   H1156     1.0  0.517534280435836  0.5481013689226317  0.04131761883758939  1.0000
  C   C1539     1.0  0.5931054239108788  0.8165964965414706  0.0914564284213548  1.0000
  C   C1540     1.0  0.5991819119927944  0.7935589389375647  0.0648764194697956  1.0000
  H   H1157     1.0  0.5743531386820931  0.8169975616922593  0.0964614997985108  1.0000
  H   H1158     1.0  0.596731884011729  0.8321749419560065  0.07212042201218641  1.0000
  H   H1159     1.0  0.6176291150506583  0.7888178084082017  0.07283031035937616  1.0000
  H   H1160     1.0  0.5885633308433772  0.7791731929574405  0.07732900154466953  1.0000
  C   C1541     1.0  0.7104374890028414  0.7393787636932864  0.5556933592994423  1.0000
  C   C1542     1.0  0.7074869081458789  0.7293386365947767  0.6036475293231692  1.0000
  H   H1161     1.0  0.7260281965737054  0.7502912412423134  0.5555772640430476  1.0000
  H   H1162     1.0  0.7149569284775449  0.724743934643405  0.5331503921606895  1.0000
  H   H1163     1.0  0.7230106539282702  0.720547480170002  0.6170053129412851  1.0000
  H   H1164     1.0  0.6949754433827846  0.7148458629774103  0.6020017083354566  1.0000
  C   C1543     1.0  0.6514886937094252  0.8888263162182267  0.5203457682936306  1.0000
  C   C1544     1.0  0.6362305107269203  0.907030858985652  0.4942516521357466  1.0000
  H   H1165     1.0  0.6469069248914675  0.889487868183255  0.5571752811016566  1.0000
  H   H1166     1.0  0.6699248343515616  0.8938772213956584  0.5186658016422724  1.0000
  H   H1167     1.0  0.6368452296278769  0.9237887804420825  0.5126015317788333  1.0000
  H   H1168     1.0  0.6457271247716284  0.9107757999495348  0.4622469216008283  1.0000
  C   C1545     1.0  0.641120455729267  0.7152074821411587  0.1316578255143731  1.0000
  C   C1546     1.0  0.6391724334077519  0.6911429484938432  0.15380333712829247  1.0000
  H   H1169     1.0  0.625484129003028  0.7193691915166902  0.11124691361364467  1.0000
  H   H1170     1.0  0.654903949923749  0.7138303483423043  0.10599462763169532  1.0000
  H   H1171     1.0  0.6539487945847433  0.6807542578780551  0.1424720986475364  1.0000
  H   H1172     1.0  0.6424515003281669  0.6921111319297045  0.19078104211653998  1.0000
  C   C1547     1.0  0.5425373549039272  0.7550857240621874  0.5359059472168805  1.0000
  C   C1548     1.0  0.5504036897102729  0.7499506093762318  0.4865825360809694  1.0000
  H   H1173     1.0  0.5353735487325776  0.7731014559219531  0.5394809982005634  1.0000
  H   H1174     1.0  0.5579016314437709  0.7531523097083263  0.5595654775568409  1.0000
  H   H1175     1.0  0.5367828835500131  0.7553859352576023  0.4624825266799822  1.0000
  H   H1176     1.0  0.5518949384740913  0.731328364090487  0.48025534460746  1.0000
  C   C1549     1.0  0.00017909490803114103  0.7598460649154966  0.1960497180170392  1.0000
  C   C1550     1.0  0.0014233680342408128  0.7504720484527292  0.14677376935359532  1.0000
  H   H1177     1.0  0.01725685840547797  0.7652741493988751  0.21091673996828575  1.0000
  H   H1178     1.0  0.9944625463361755  0.7462708590848326  0.22032284593270904  1.0000
  H   H1179     1.0  0.010235917804248817  0.7640876100126505  0.12506088329806433  1.0000
  H   H1180     1.0  0.9833533585913725  0.7497252525702083  0.1318999182696196  1.0000
  C   C1551     1.0  0.8367882523344996  0.7683097021507118  0.49050245826747174  1.0000
  C   C1552     1.0  0.8442757545057596  0.7639672570733922  0.4393249375956105  1.0000
  H   H1181     1.0  0.8284259805216846  0.7517640279388541  0.5024500259770289  1.0000
  H   H1182     1.0  0.8222674111569639  0.780589087351985  0.4923053493079536  1.0000
  H   H1183     1.0  0.829915694772069  0.7536251002644463  0.4230135540721597  1.0000
  H   H1184     1.0  0.860182221255474  0.7529823602477448  0.43816739959802836  1.0000
  C   C1553     1.0  0.9212482643988201  0.808537007900494  0.9917915316805539  1.0000
  C   C1554     1.0  0.9282193098459622  0.7822581169591452  0.9888550046070418  1.0000
  H   H1185     1.0  0.931461187700573  0.8196176094772875  0.9666398358392856  1.0000
  H   H1186     1.0  0.9032186396016665  0.8101646139608665  0.9799361572628396  1.0000
  H   H1187     1.0  0.9213064127334686  0.7721972968901806  0.01741102311376541  1.0000
  H   H1188     1.0  0.9469445001681419  0.7802282178391889  0.9897974249236573  1.0000
  C   C1555     1.0  0.9915975520444271  0.9344183319683036  0.25814429026963664  1.0000
  C   C1556     1.0  0.9661609341732526  0.9318431101226602  0.241342916472873  1.0000
  H   H1189     1.0  0.9938007452729952  0.926786486528413  0.29263584948785604  1.0000
  H   H1190     1.0  0.9946980914037081  0.9532077096925856  0.2644004587627634  1.0000
  H   H1191     1.0  0.963043557156594  0.9450466867122959  0.21403492197239196  1.0000
  H   H1192     1.0  0.954883617674879  0.9379590094437769  0.2691904124589528  1.0000
  C   C1557     1.0  0.7423961685687178  0.8449474971608623  0.25776937088280916  1.0000
  C   C1558     1.0  0.7582646277587016  0.8366637006530814  0.2980475957190298  1.0000
  H   H1193     1.0  0.7505584420020257  0.840091479911858  0.2242970597244077  1.0000
  H   H1194     1.0  0.741578159209461  0.8642917575561572  0.25662993008695917  1.0000
  H   H1195     1.0  0.7516304319704161  0.8439999761779842  0.3296958455254892  1.0000
  H   H1196     1.0  0.7562962575471225  0.8176906117936162  0.3016479144938103  1.0000
  C   C1559     1.0  0.38906996652741477  0.308979544054975  0.5113142402593983  1.0000
  C   C1560     1.0  0.40442236219729466  0.2871647155096574  0.5024056366142897  1.0000
  H   H1197     1.0  0.3900261574254228  0.32047317473122544  0.4821470143734202  1.0000
  H   H1198     1.0  0.3708928140921571  0.3033188203775936  0.5126493357079369  1.0000
  H   H1199     1.0  0.40504039581937384  0.27559893888702947  0.5328260083560573  1.0000
  H   H1200     1.0  0.42240070878887587  0.2929401045729846  0.49635502501630885  1.0000
  C   C1561     1.0  0.40502914649788785  0.22148243379952318  0.9790005660789531  1.0000
  C   C1562     1.0  0.4184497080169805  0.23621402193566862  0.9437963868604524  1.0000
  H   H1201     1.0  0.41160091767250717  0.20313701960068145  0.9791303196008061  1.0000
  H   H1202     1.0  0.3866337130924367  0.22070756551222329  0.9682344383315301  1.0000
  H   H1203     1.0  0.4237376617235236  0.22429068237767302  0.9167496066868593  1.0000
  H   H1204     1.0  0.43572609462339335  0.24243844156197625  0.9570380752221737  1.0000
  C   C1563     1.0  0.4959024804879033  0.28682794973507075  0.6020597559636539  1.0000
  C   C1564     1.0  0.4841306059249183  0.26723287280485636  0.5725818045385019  1.0000
  H   H1205     1.0  0.508748149370351  0.27923309288067266  0.6261529362319121  1.0000
  H   H1206     1.0  0.5061705937423953  0.2972501963746519  0.579031920401135  1.0000
  H   H1207     1.0  0.48615285517941903  0.2709862852733846  0.5359127763496097  1.0000
  H   H1208     1.0  0.46511295196162006  0.26644722930952863  0.574511034534472  1.0000
  C   C1565     1.0  0.4024869504347265  0.41206895054610826  0.9327366064056781  1.0000
  C   C1566     1.0  0.4164760193133322  0.42732822752012  0.8997143350941241  1.0000
  H   H1209     1.0  0.38678933421087736  0.4217845753895041  0.9430315239947934  1.0000
  H   H1210     1.0  0.41246960887933354  0.4092772815725989  0.96554717460263  1.0000
  H   H1211     1.0  0.41589951560547395  0.41890404022931105  0.8665827976589047  1.0000
  H   H1212     1.0  0.4078251476369562  0.44450950359614394  0.8942373706453874  1.0000
  C   C1567     1.0  0.44434628879166715  0.4418656065591136  0.736713180549646  1.0000
  C   C1568     1.0  0.46485095222953376  0.44191541771681386  0.7707871383014809  1.0000
  H   H1213     1.0  0.4503234738399894  0.4515399968904943  0.7062176883478584  1.0000
  H   H1214     1.0  0.4292910165772578  0.4514748925866893  0.7512455749971667  1.0000
  H   H1215     1.0  0.45857028088891333  0.43724926441721695  0.8050625554688243  1.0000
  H   H1216     1.0  0.4703276126405583  0.460020143031817  0.7745807215324949  1.0000
  C   C1569     1.0  0.13887203467003018  0.20029609006096777  0.06345835005859837  1.0000
  C   C1570     1.0  0.13194110591569516  0.21039720789205565  0.10946211977489488  1.0000
  H   H1217     1.0  0.128709217181161  0.184744795237589  0.05569055303588572  1.0000
  H   H1218     1.0  0.156277850416424  0.19346092095349876  0.06617634488477941  1.0000
  H   H1219     1.0  0.11318536084091059  0.2129940750184724  0.1097277730380568  1.0000
  H   H1220     1.0  0.1355258605350532  0.19701985289592758  0.13505873361346396  1.0000
  C   C1571     1.0  0.1668591136787203  0.2521686964215095  0.5554304376893721  1.0000
  C   C1572     1.0  0.16461121411359184  0.22899042237434716  0.5292885176023845  1.0000
  H   H1221     1.0  0.18171366581814608  0.2621251875355308  0.5401843988716605  1.0000
  H   H1222     1.0  0.15199766304269216  0.26380286801981867  0.5496290894360031  1.0000
  H   H1223     1.0  0.15261199110582507  0.21685081465819278  0.5477101031391267  1.0000
  H   H1224     1.0  0.18131007941134009  0.2201522394043684  0.5273524584736852  1.0000
  C   C1573     1.0  0.15529178329966306  0.3541229336456654  0.9925461508471194  1.0000
  C   C1574     1.0  0.14396071456076304  0.3726894559170553  0.9617535913716159  1.0000
  H   H1225     1.0  0.17426476386447276  0.35618193104632384  0.9931505290936444  1.0000
  H   H1226     1.0  0.14940276799086044  0.35618518587857995  0.027808377693817388  1.0000
  H   H1227     1.0  0.14865401131799966  0.36830976759027956  0.9250231009881617  1.0000
  H   H1228     1.0  0.15265980205387641  0.38946565518744414  0.9680807828451253  1.0000
  C   C1575     1.0  0.03078558516380192  0.2768817060009396  0.8769494211416756  1.0000
  C   C1576     1.0  0.023739012462970166  0.2700783996978256  0.9261772244193793  1.0000
  H   H1229     1.0  0.02561268292248431  0.29523508798365483  0.8715236751884072  1.0000
  H   H1230     1.0  0.020900850644422375  0.26738905520519385  0.8514357812657651  1.0000
  H   H1231     1.0  0.010485774826054062  0.28213357636751635  0.9394667167102042  1.0000
  H   H1232     1.0  0.03819917498641878  0.27192090607330943  0.950130407466691  1.0000
  C   C1577     1.0  0.2744233674218037  0.2687661361018438  0.8224324545652854  1.0000
  C   C1578     1.0  0.2742624803548461  0.29228439142500057  0.8490489993769453  1.0000
  H   H1233     1.0  0.2816046259554715  0.2550722730065681  0.8442310462365665  1.0000
  H   H1234     1.0  0.28646240842041404  0.2695636964919093  0.7939515565185817  1.0000
  H   H1235     1.0  0.265293635915396  0.2887528402196325  0.8822078533430812  1.0000
  H   H1236     1.0  0.26448151467568143  0.3059769387753136  0.8299684025318451  1.0000
  C   C1579     1.0  0.05018662527964457  0.8026165890281826  0.6477978724167884  1.0000
  C   C1580     1.0  0.060211040071981234  0.8008689888506415  0.6969983591635759  1.0000
  H   H1237     1.0  0.03598918472339887  0.789518020514316  0.6451754854488149  1.0000
  H   H1238     1.0  0.06380440484750641  0.7972547627164427  0.622110089656286  1.0000
  H   H1239     1.0  0.055704741326123554  0.7836282945161238  0.7109536918954878  1.0000
  H   H1240     1.0  0.050876200505841  0.8130738860808385  0.7189574354539907  1.0000
  C   C1581     1.0  0.044992196331080384  0.952488767017719  0.7758577693528363  1.0000
  C   C1582     1.0  0.02726379234477405  0.9522346471521054  0.8153540584915752  1.0000
  H   H1241     1.0  0.061867118719611286  0.9447606565429025  0.7879077740533299  1.0000
  H   H1242     1.0  0.050011416452087905  0.9705019025626418  0.7674408632642229  1.0000
  H   H1243     1.0  0.013988001193879773  0.9662166607014957  0.8098395338128284  1.0000
  H   H1244     1.0  0.018184464296068237  0.9353116415800808  0.8171159747356824  1.0000
  C   C1583     1.0  0.10539264494927848  0.8794046307090191  0.33266583534937394  1.0000
  C   C1584     1.0  0.11983219703436546  0.8938802407598622  0.29968351446428526  1.0000
  H   H1245     1.0  0.09893233255151655  0.8633944009516263  0.3150251611402042  1.0000
  H   H1246     1.0  0.1182935199815365  0.8727040440664366  0.3578294821729182  1.0000
  H   H1247     1.0  0.13644120266273452  0.8849950971264142  0.29782428307878833  1.0000
  H   H1248     1.0  0.12308489876893737  0.9118606716752435  0.3135893359839113  1.0000
  C   C1585     1.0  0.9326038038847538  0.9186625106314191  0.3520656941495594  1.0000
  C   C1586     1.0  0.91247844332726  0.9220391887204064  0.38676793211247146  1.0000
  H   H1249     1.0  0.9297604846215896  0.932861286902538  0.32572709503997377  1.0000
  H   H1250     1.0  0.9305937370201601  0.9015765017097922  0.33286866059142817  1.0000
  H   H1251     1.0  0.9039339567680668  0.9397906996766893  0.38441188132093257  1.0000
  H   H1252     1.0  0.9186677292589711  0.921195872935921  0.42338915637226004  1.0000
  C   C1587     1.0  0.8971783262148179  0.8972464088775387  0.640070708733814  1.0000
  C   C1588     1.0  0.9142768144129325  0.9071589751952536  0.6767568097545291  1.0000
  H   H1253     1.0  0.9014585413860832  0.9043837140283156  0.6056552943455241  1.0000
  H   H1254     1.0  0.880020722595787  0.9032736606320708  0.6484773711233337  1.0000
  H   H1255     1.0  0.9117362676497062  0.8964453488625936  0.7078430219373837  1.0000
  H   H1256     1.0  0.9107453455938321  0.9256600234853264  0.6861605255224971  1.0000
  C   C1589     1.0  0.9553685709282582  0.1437318177225423  0.3224450138503693  1.0000
  C   C1590     1.0  0.9369835565770441  0.15681360564371996  0.3507613297983017  1.0000
  H   H1257     1.0  0.9541377263913998  0.14820439468858254  0.28587295934623014  1.0000
  H   H1258     1.0  0.9516399404343708  0.12507215299513946  0.32291827274849577  1.0000
  H   H1259     1.0  0.9412770520000381  0.15636099420267224  0.3885674085865888  1.0000
  H   H1260     1.0  0.9201303781105727  0.14837449118234192  0.348487228599512  1.0000
  C   C1591     1.0  0.08386923826310501  0.19255591181513207  0.2067031650744322  1.0000
  C   C1592     1.0  0.09879644184633492  0.17731315646940796  0.2386044342485047  1.0000
  H   H1261     1.0  0.07884935983648038  0.2086667810623967  0.2238791168013869  1.0000
  H   H1262     1.0  0.09572568383558532  0.19846728371825445  0.17899020300311563  1.0000
  H   H1263     1.0  0.1159482324545263  0.18516543078947736  0.23811854145482936  1.0000
  H   H1264     1.0  0.10031374849497954  0.16000635898904045  0.22295240349004827  1.0000
  C   C1593     1.0  0.04191856459067605  0.11873543434596559  0.7816796050043924  1.0000
  C   C1594     1.0  0.027923655722144947  0.12166534700115587  0.737030735221549  1.0000
  H   H1265     1.0  0.05951458595720638  0.1264164257155535  0.7769333577576691  1.0000
  H   H1266     1.0  0.04510332397716694  0.10036867393042827  0.7904208948976379  1.0000
  H   H1267     1.0  0.015783357065422443  0.13645343645724345  0.7390487439429974  1.0000
  H   H1268     1.0  0.0154496061808449  0.10699366280978853  0.732479118257605  1.0000
  C   C1595     1.0  0.18054054775083686  0.13522654155484737  0.6862322314161527  1.0000
  C   C1596     1.0  0.1762910596587504  0.1372665421703837  0.6352766575579871  1.0000
  H   H1269     1.0  0.19674356998240367  0.1257998824408653  0.6956461908832144  1.0000
  H   H1270     1.0  0.16688696890810206  0.12464309989981125  0.7021441106749512  1.0000
  H   H1271     1.0  0.18596641312717405  0.12261832631340745  0.6212803500297006  1.0000
  H   H1272     1.0  0.18411013076778293  0.15365474691180514  0.6224139860627309  1.0000
  C   C1597     1.0  0.031344118059041026  0.2793172005825352  0.3516115568230744  1.0000
  C   C1598     1.0  0.022000112118515824  0.2751069956719533  0.40075058137529984  1.0000
  H   H1273     1.0  0.02387683484684855  0.29601748581327836  0.3391784377764784  1.0000
  H   H1274     1.0  0.024983760721255743  0.26606081961469435  0.32798787942994173  1.0000
  H   H1275     1.0  0.0033003170567456053  0.2799567813458365  0.4045680665708657  1.0000
  H   H1276     1.0  0.03216395624661361  0.28673674858456977  0.4243520640870629  1.0000
  C   C1599     1.0  0.07258250631563036  0.0339405323440413  0.47515398245882373  1.0000
  C   C1600     1.0  0.05101699234257118  0.027561836045292054  0.4460106585373975  1.0000
  H   H1277     1.0  0.08870801153702365  0.02925976818249465  0.45682800478028895  1.0000
  H   H1278     1.0  0.07248205024207216  0.022882829202603094  0.5056631329260696  1.0000
  H   H1279     1.0  0.03511514890031231  0.035358007536889495  0.45989769994201857  1.0000
  H   H1280     1.0  0.05314829547809683  0.03550811710610243  0.4116157315472949  1.0000
