data_image0
_chemical_formula_structural       C6H4C38H24C6H4C38H24C6H4C38H24C6H4C38H24C6H4C38H24C6H4C38H24C6H4C38H24C6H4C38H24C6H4C38H24C6H4C38H24C6H4C38H24C6H4C38H24C2H4C2H4C2H4C2H4C2H4C2H4C2H4C2H4C2H4C2H4C2H4C2H4C2H4C2H4C2H4C2H4C2H4C2H4C2H4C2H4C2H4C2H4C2H4C2H4C2H4C2H4C2H4C2H4C2H4C2H4C2H4C2H4C2H4C2H4C2H4C2H4C6H4C38H24C6H4C38H24C6H4C38H24C6H4C38H24C6H4C38H24C6H4C38H24C6H4C38H24C6H4C38H24C6H4C38H24C6H4C38H24C6H4C38H24C6H4C38H24C2H4C2H4C2H4C2H4C2H4C2H4C2H4C2H4C2H4C2H4C2H4C2H4C2H4C2H4C2H4C2H4C2H4C2H4C2H4C2H4C2H4C2H4C2H4C2H4C2H4C2H4C2H4C2H4C2H4C2H4C2H4C2H4C2H4C2H4C2H4C2H4C6H4C38H24C6H4C38H24C6H4C38H24C6H4C38H24C6H4C38H24C6H4C38H24C6H4C38H24C6H4C38H24C6H4C38H24C6H4C38H24C6H4C38H24C6H4C38H24C2H4C2H4C2H4C2H4C2H4C2H4C2H4C2H4C2H4C2H4C2H4C2H4C2H4C2H4C2H4C2H4C2H4C2H4C2H4C2H4C2H4C2H4C2H4C2H4C2H4C2H4C2H4C2H4C2H4C2H4C2H4C2H4C2H4C2H4C2H4C2H4C6H4C38H24C6H4C38H24C6H4C38H24C6H4C38H24C6H4C38H24C6H4C38H24C6H4C38H24C6H4C38H24C6H4C38H24C6H4C38H24C6H4C38H24C6H4C38H24C2H4C2H4C2H4C2H4C2H4C2H4C2H4C2H4C2H4C2H4C2H4C2H4C2H4C2H4C2H4C2H4C2H4C2H4C2H4C2H4C2H4C2H4C2H4C2H4C2H4C2H4C2H4C2H4C2H4C2H4C2H4C2H4C2H4C2H4C2H4C2H4
_chemical_formula_sum              "C2400 H1920"
_cell_length_a       55.98865522191738
_cell_length_b       56.07937739824766
_cell_length_c       65.37576670788654
_cell_angle_alpha    89.74759999961857
_cell_angle_beta     90.59580000032894
_cell_angle_gamma    119.89030000009647

_space_group_name_H-M_alt    "P 1"
_space_group_IT_number       1

loop_
  _space_group_symop_operation_xyz
  'x, y, z'

loop_
  _atom_site_type_symbol
  _atom_site_label
  _atom_site_symmetry_multiplicity
  _atom_site_fract_x
  _atom_site_fract_y
  _atom_site_fract_z
  _atom_site_occupancy
  C   C1        1.0  0.022794487020992613  0.22994815970632504  0.012373530755521372  1.0000
  C   C2        1.0  0.03403979109750451  0.22056465095774583  0.02732935161017867  1.0000
  C   C3        1.0  0.03369505667352605  0.19606739311424043  0.024071239127417227  1.0000
  C   C4        1.0  0.024272721519399573  0.18159791817017656  0.005846431459174628  1.0000
  C   C5        1.0  0.015057986845420035  0.19247754326554034  0.9905631778720253  1.0000
  C   C6        1.0  0.01354956100406738  0.215904658080072  0.9941610371891081  1.0000
  H   H1        1.0  0.04384667161410352  0.231330089368007  0.04120986838025117  1.0000
  H   H2        1.0  0.04382275851843413  0.18945287700301208  0.03557444587849372  1.0000
  H   H3        1.0  0.008419957670771916  0.1822039823243751  0.9760845475845294  1.0000
  H   H4        1.0  0.004783655180879125  0.22295796006547738  0.9827203952535369  1.0000
  C   C7        1.0  0.47966710186828837  0.12691568858674498  0.9867771651977989  1.0000
  C   C8        1.0  0.0073632893555541515  0.13488432991029875  0.9852994729782826  1.0000
  C   C9        1.0  0.01508958327546057  0.12352752584868189  0.9696766255270207  1.0000
  C   C10       1.0  0.49635810160287996  0.10517364321221027  0.9559949700287258  1.0000
  C   C11       1.0  0.4693572376140646  0.09939165168168558  0.9566940438841285  1.0000
  C   C12       1.0  0.46134133227195573  0.11063595227711522  0.9719772974712779  1.0000
  C   C13       1.0  0.029775329329895555  0.1575641150816825  0.0005919047779756603  1.0000
  C   C14       1.0  0.02553044236697411  0.1365703184043071  0.018375852303708386  1.0000
  C   C15       1.0  0.037957480445572025  0.1204131287151559  0.01720272377042994  1.0000
  C   C16       1.0  0.03447427764165473  0.10188508520137977  0.032242142844338344  1.0000
  C   C17       1.0  0.01875155198720898  0.0994881720261862  0.04901807973149186  1.0000
  C   C18       1.0  0.004749093683737683  0.11392007760399629  0.049970931163724405  1.0000
  C   C19       1.0  0.007203260054994777  0.13135700103765796  0.03424865307657375  1.0000
  C   C20       1.0  0.06557978347467519  0.18628193585845768  0.9723138319312091  1.0000
  C   C21       1.0  0.09211050828449868  0.20058022449155644  0.9646209601175993  1.0000
  C   C22       1.0  0.11459105991203457  0.20349811359130018  0.9754971419817404  1.0000
  C   C23       1.0  0.1103306173812907  0.19335278673971185  0.9954138632013066  1.0000
  C   C24       1.0  0.08411767121516263  0.18047682893455277  0.00350598726056206  1.0000
  C   C25       1.0  0.060920283616098574  0.1750377660580686  0.9916247911228993  1.0000
  C   C26       1.0  0.1438302874014386  0.2157372458698017  0.964463400802268  1.0000
  C   C27       1.0  0.12396166342593913  0.14282358800398323  0.9271662044293445  1.0000
  C   C28       1.0  0.1217702718647965  0.16442651810321385  0.9191306793474415  1.0000
  C   C29       1.0  0.12679533151098715  0.18684337217028812  0.9306049747290054  1.0000
  C   C30       1.0  0.13622648501084253  0.1892064471652169  0.9504452108440418  1.0000
  C   C31       1.0  0.13635112195872212  0.16657036965111652  0.9591400375269922  1.0000
  C   C32       1.0  0.1308498928254364  0.14391430729320184  0.9473200294729532  1.0000
  C   C33       1.0  0.1702550747046047  0.22459429208875223  0.9785901996089265  1.0000
  C   C34       1.0  0.17441646909064454  0.23857753739444038  0.9967217584887665  1.0000
  C   C35       1.0  0.19775056563013788  0.2481766994766567  0.008400236654343345  1.0000
  C   C36       1.0  0.21828404779382393  0.24420479381063015  0.0017728347919163667  1.0000
  C   C37       1.0  0.21627828806950117  0.2320391292187786  0.9831349445200886  1.0000
  C   C38       1.0  0.19244067172364285  0.22215264949482028  0.9715550996942737  1.0000
  C   C39       1.0  0.17235549621584983  0.255322760950863  0.9378022230652622  1.0000
  C   C40       1.0  0.18433682577727717  0.28229394301309046  0.9315273850896351  1.0000
  C   C41       1.0  0.1764195907339407  0.29974496795886296  0.9394604201314685  1.0000
  C   C42       1.0  0.15688364140614497  0.28988648391590705  0.954532574830116  1.0000
  C   C43       1.0  0.14632242714102833  0.2635155488875672  0.9622392139625406  1.0000
  C   C44       1.0  0.15353047849513476  0.24552720207038553  0.9538885702499744  1.0000
  H   H5        1.0  0.4723186142704754  0.13498908632128837  0.9991830491525363  1.0000
  H   H6        1.0  0.03671193535716763  0.13004806178568418  0.9672336912883382  1.0000
  H   H7        1.0  0.003449029226116008  0.09677861123241971  0.9448220259590094  1.0000
  H   H8        1.0  0.43971962664463465  0.10525536875435208  0.9727849801751128  1.0000
  H   H9        1.0  0.05031922823539036  0.12144584906226458  0.004151521542793857  1.0000
  H   H10       1.0  0.044573913771325496  0.09032031511137124  0.03110909250583352  1.0000
  H   H11       1.0  0.4909688563811421  0.111157232505051  0.06245284131236454  1.0000
  H   H12       1.0  0.4954181730215736  0.14156130613536916  0.03545880040044463  1.0000
  H   H13       1.0  0.04873446497446483  0.1836315415868  0.962727188929441  1.0000
  H   H14       1.0  0.09506793213678921  0.20831451034852194  0.9492413352987426  1.0000
  H   H15       1.0  0.1264627090540888  0.19416221166923023  0.0050433378616114855  1.0000
  H   H16       1.0  0.08152724143087275  0.17232250156286694  0.018762255051793058  1.0000
  H   H17       1.0  0.11700370938194529  0.16459621542679903  0.9032646092637747  1.0000
  H   H18       1.0  0.12533439940253485  0.2036973659699589  0.9233863105634805  1.0000
  H   H19       1.0  0.14219552674500452  0.16662649905219698  0.9749999888022967  1.0000
  H   H20       1.0  0.13179712652201456  0.1266230365180726  0.9535092041315065  1.0000
  H   H21       1.0  0.15838709738985318  0.24227362226867685  0.001890621852892238  1.0000
  H   H22       1.0  0.1985776385159354  0.25847151688714476  0.022596912252500323  1.0000
  H   H23       1.0  0.23383247301551194  0.23153371529666858  0.9767652650148448  1.0000
  H   H24       1.0  0.19214572031418573  0.21420606431740677  0.9568546626036414  1.0000
  H   H25       1.0  0.18018583877588867  0.24308720043310264  0.9311434298648953  1.0000
  H   H26       1.0  0.1985658417272194  0.2890374734433568  0.9190450160303677  1.0000
  H   H27       1.0  0.1516332231246853  0.30430493152007876  0.9617282934642815  1.0000
  H   H28       1.0  0.13047160481207815  0.25678727108665295  0.973724217258739  1.0000
  C   C45       1.0  0.3030096345710228  0.002870390127153413  0.8468323694395795  1.0000
  C   C46       1.0  0.3113119233571177  0.4875965434899417  0.8353014750806632  1.0000
  C   C47       1.0  0.3324739364236206  0.48395925871348383  0.8413805111886936  1.0000
  C   C48       1.0  0.3471037117974069  0.49603530014389224  0.8590210356974524  1.0000
  C   C49       1.0  0.3360647870400416  0.007754323651895128  0.8721688251661294  1.0000
  C   C50       1.0  0.31534208704869904  0.012247669269934014  0.8655345071992121  1.0000
  H   H29       1.0  0.30280824801507783  0.48088148479035914  0.8202002560422947  1.0000
  H   H30       1.0  0.3398941213974487  0.474423512846648  0.8306986014900584  1.0000
  H   H31       1.0  0.3455127844675905  0.015384707468928258  0.8870803611452637  1.0000
  H   H32       1.0  0.3096049883986234  0.02377685065360004  0.875368961939657  1.0000
  C   C51       1.0  0.3998269094724357  0.04596854451184799  0.8764764662532487  1.0000
  C   C52       1.0  0.39489965091613083  0.01953990190491147  0.8797148455790418  1.0000
  C   C53       1.0  0.4106988609312781  0.015666281581914396  0.8945590746661899  1.0000
  C   C54       1.0  0.4305751708744043  0.0374735672584206  0.905263929896184  1.0000
  C   C55       1.0  0.4331750203935186  0.06323675026873421  0.9035537229588972  1.0000
  C   C56       1.0  0.41743533719246073  0.0673556477831665  0.8888685828891709  1.0000
  C   C57       1.0  0.37425000317821827  0.49510602701599304  0.8651321955493853  1.0000
  C   C58       1.0  0.3947813213427299  0.49976361437883865  0.8465524339570004  1.0000
  C   C59       1.0  0.41256714644709275  0.48979761299861224  0.8475161462740762  1.0000
  C   C60       1.0  0.4296273009270756  0.4925728244429575  0.8317953978890161  1.0000
  C   C61       1.0  0.43000393437325596  0.006342641220324457  0.8141977050387942  1.0000
  C   C62       1.0  0.4123492014333136  0.016934102061992393  0.8125639832060372  1.0000
  C   C63       1.0  0.3958156666789924  0.014173662158276664  0.8287665877496351  1.0000
  C   C64       1.0  0.34962919964075995  0.46178106678672487  0.8943311490546909  1.0000
  C   C65       1.0  0.33576509229586704  0.43671988018259783  0.9033976933456563  1.0000
  C   C66       1.0  0.33306507580222955  0.41399936726322  0.8937360949414489  1.0000
  C   C67       1.0  0.34564733307508855  0.41718352954297866  0.8751823382846042  1.0000
  C   C68       1.0  0.3571455409482136  0.44189399703336124  0.8652300964831834  1.0000
  C   C69       1.0  0.3604836975734157  0.46519703668435813  0.8752725907079494  1.0000
  C   C70       1.0  0.3180713895158912  0.385057499742792  0.9048891528839883  1.0000
  C   C71       1.0  0.3861762783932714  0.392813911288362  0.9427018588614424  1.0000
  C   C72       1.0  0.36754051961227785  0.3982854090765393  0.9516292002621638  1.0000
  C   C73       1.0  0.3463820576688762  0.39735821422522843  0.9400202910966268  1.0000
  C   C74       1.0  0.3426421316931707  0.38826115385554527  0.9195865305704389  1.0000
  C   C75       1.0  0.3619406352111976  0.38290102978441365  0.9109146494188474  1.0000
  C   C76       1.0  0.3840007303453189  0.3863190200828621  0.9225556823282867  1.0000
  C   C77       1.0  0.3047973888809262  0.3590046473665917  0.8898062902707066  1.0000
  C   C78       1.0  0.2920918786195931  0.3577233462615747  0.8710857960859868  1.0000
  C   C79       1.0  0.2788054973498097  0.33342832832647806  0.8605354407671428  1.0000
  C   C80       1.0  0.2750202454217527  0.3093991313605442  0.8691767278769224  1.0000
  C   C81       1.0  0.2865652701276714  0.30978757569777293  0.8877182469170424  1.0000
  C   C82       1.0  0.30178211073271183  0.33447230496469316  0.897375256214978  1.0000
  C   C83       1.0  0.2815334987739309  0.3618088892603816  0.9331962900704758  1.0000
  C   C84       1.0  0.255701680005752  0.3532271128998095  0.9409824737116119  1.0000
  C   C85       1.0  0.23819919980060153  0.3603133582544962  0.9312780436488678  1.0000
  C   C86       1.0  0.24674120596255808  0.37591741532353457  0.9136176330129314  1.0000
  C   C87       1.0  0.2732057464250917  0.38636190162275713  0.9069328348770248  1.0000
  C   C88       1.0  0.29091755486910265  0.37890494069189073  0.9162257750773984  1.0000
  H   H33       1.0  0.38944927749488356  0.0505474223710758  0.8640812902131455  1.0000
  H   H34       1.0  0.4095023756019214  0.4958409496565678  0.8965920487445929  1.0000
  H   H35       1.0  0.4423428617899256  0.033081590364355394  0.9169263786348916  1.0000
  H   H36       1.0  0.42057716265586415  0.08801172825045242  0.8865419060093737  1.0000
  H   H37       1.0  0.41364047608136695  0.47947891045239577  0.8612957027061693  1.0000
  H   H38       1.0  0.44332731703635775  0.48409757915750096  0.8332730901085323  1.0000
  H   H39       1.0  0.41188838849599524  0.028236945478155875  0.7990352979168017  1.0000
  H   H40       1.0  0.3826828367398917  0.02272426188267615  0.8266005295893505  1.0000
  H   H41       1.0  0.3523763380208136  0.4791100304557228  0.9033808666226597  1.0000
  H   H42       1.0  0.328584924436557  0.4365390950770337  0.918937936884026  1.0000
  H   H43       1.0  0.34578348203394654  0.39970502372510935  0.8683399808333662  1.0000
  H   H44       1.0  0.3646700175039203  0.4423915349859468  0.8496975014552667  1.0000
  H   H45       1.0  0.368913409329535  0.4036112237194908  0.96767424549043  1.0000
  H   H46       1.0  0.33271189032392556  0.4033008227163501  0.9473307373875873  1.0000
  H   H47       1.0  0.3602258613168749  0.37575565689644924  0.895441712772464  1.0000
  H   H48       1.0  0.39914980948761786  0.38199144213686526  0.9156276615599752  1.0000
  H   H49       1.0  0.2918696413489185  0.3756279869736212  0.8645876216051332  1.0000
  H   H50       1.0  0.2714638976619691  0.3333462735552778  0.8453500881137915  1.0000
  H   H51       1.0  0.284581499665731  0.2917816202407502  0.8954814850268198  1.0000
  H   H52       1.0  0.3102488493279514  0.33429928992174196  0.9125361336348797  1.0000
  H   H53       1.0  0.29433901647752303  0.35442168926859996  0.9406413501454088  1.0000
  H   H54       1.0  0.24956295501547168  0.3406310976679744  0.9543796046210559  1.0000
  H   H55       1.0  0.233391062321696  0.3815801167103538  0.9054092515947907  1.0000
  H   H56       1.0  0.27921780376711175  0.3986554821997501  0.8934622782672326  1.0000
  C   C89       1.0  0.3121472104218437  0.22732161896102607  0.3486634678075661  1.0000
  C   C90       1.0  0.3181885384071175  0.2501060153624615  0.3601347037849491  1.0000
  C   C91       1.0  0.3381578787786624  0.2754953167317226  0.3536778312605413  1.0000
  C   C92       1.0  0.35296342442479134  0.27873196548432  0.3360097721141519  1.0000
  C   C93       1.0  0.34499235519791743  0.2556731755485086  0.32383946228136634  1.0000
  C   C94       1.0  0.32505655692102353  0.23018095424897614  0.33022902791378783  1.0000
  H   H57       1.0  0.30910446751634335  0.24792528941920558  0.37504929916826485  1.0000
  H   H58       1.0  0.3421097357196729  0.292917399292457  0.36319563766823265  1.0000
  H   H59       1.0  0.35458321931909925  0.25626665951117217  0.3094143715670415  1.0000
  H   H60       1.0  0.3205578222314768  0.2122838557574291  0.3207938254189887  1.0000
  C   C95       1.0  0.40769686926655735  0.297329845867351  0.31082016778829963  1.0000
  C   C96       1.0  0.39499433839847653  0.31316311849855866  0.3109899647203559  1.0000
  C   C97       1.0  0.40261276875589913  0.3330563384325166  0.2956868250060286  1.0000
  C   C98       1.0  0.4194352327875488  0.3343169350616869  0.28014964087184013  1.0000
  C   C99       1.0  0.4307313979157818  0.3176446854603473  0.2801358735530247  1.0000
  C   C100      1.0  0.42608301646847074  0.3001977250941003  0.2960631317203155  1.0000
  C   C101      1.0  0.3756837354613264  0.3097465772950224  0.32957431541901255  1.0000
  C   C102      1.0  0.39826324254649104  0.3251771042387999  0.34713376571696963  1.0000
  C   C103      1.0  0.41441829992820584  0.35396332885740284  0.3484890817692381  1.0000
  C   C104      1.0  0.4331232525439782  0.3665778703821304  0.3641272262414059  1.0000
  C   C105      1.0  0.4381225066533715  0.35076949777601396  0.3777966441229761  1.0000
  C   C106      1.0  0.4229928844852764  0.3225426795977679  0.3764107340288957  1.0000
  C   C107      1.0  0.40354635243800346  0.30987367215051986  0.36165828706718334  1.0000
  C   C108      1.0  0.34135567022390234  0.3183380907965148  0.30767662999212386  1.0000
  C   C109      1.0  0.321993670870464  0.32610190187281063  0.3055365767673794  1.0000
  C   C110      1.0  0.3197214755960598  0.3425758782745233  0.3202324247517398  1.0000
  C   C111      1.0  0.3350562633550033  0.3483605217817625  0.33812382040335626  1.0000
  C   C112      1.0  0.351967644184353  0.3375453716593499  0.34102566526921785  1.0000
  C   C113      1.0  0.356457181007619  0.3230984833984954  0.3255879117709181  1.0000
  C   C114      1.0  0.30142541355935665  0.3563919008886024  0.3156524966924939  1.0000
  C   C115      1.0  0.35413184710829854  0.41994479206147295  0.2717163932463817  1.0000
  C   C116      1.0  0.3336931277181263  0.394507013255553  0.26525034250943036  1.0000
  C   C117      1.0  0.31795790759798476  0.3739163064706143  0.2786474734188744  1.0000
  C   C118      1.0  0.3213095859389401  0.37874605065618694  0.29949272380743264  1.0000
  C   C119      1.0  0.3427798512992183  0.403788727431484  0.30579203701650903  1.0000
  C   C120      1.0  0.3588744127608369  0.42438316628518086  0.29207825777431157  1.0000
  C   C121      1.0  0.29290289593468455  0.3686954450881337  0.334353104750036  1.0000
  C   C122      1.0  0.28425420936964324  0.3550630149838253  0.353038415786672  1.0000
  C   C123      1.0  0.2743484662562628  0.3653319407865296  0.36793771414908194  1.0000
  C   C124      1.0  0.27366559290093045  0.3892671136835614  0.36490584460551956  1.0000
  C   C125      1.0  0.2819199098096669  0.40210356193856556  0.3462128850584305  1.0000
  C   C126      1.0  0.29041234644925795  0.3916249020294008  0.33136100746082925  1.0000
  C   C127      1.0  0.2562371298984593  0.3418596953550523  0.2942718505722269  1.0000
  C   C128      1.0  0.23022271639259106  0.3231455237047725  0.2878088592394567  1.0000
  C   C129      1.0  0.21659316960440284  0.297207287681812  0.296159502952023  1.0000
  C   C130      1.0  0.23057233895128676  0.28918913982092886  0.30912678757400935  1.0000
  C   C131      1.0  0.25752404161432885  0.30770257673209667  0.3145709973144422  1.0000
  C   C132      1.0  0.27071054638383163  0.3348104736751306  0.3073921054032729  1.0000
  H   H61       1.0  0.404521602552528  0.28318817394021656  0.3233729031437344  1.0000
  H   H62       1.0  0.3956754077394053  0.3477809972927554  0.2958474437255412  1.0000
  H   H63       1.0  0.42670236532101463  0.35057518323779924  0.26943101832303057  1.0000
  H   H64       1.0  0.4362344838360113  0.28830732675036563  0.2976280169589956  1.0000
  H   H65       1.0  0.41269707265574507  0.3663800026720571  0.3364656233371497  1.0000
  H   H66       1.0  0.44570252699665236  0.38887173152875393  0.36450659235987404  1.0000
  H   H67       1.0  0.42502046781627256  0.3095905637680006  0.3878697323895539  1.0000
  H   H68       1.0  0.3930253831016357  0.2874734170139842  0.36174242068216617  1.0000
  H   H69       1.0  0.3435868241313256  0.3064660676727015  0.2954711370112545  1.0000
  H   H70       1.0  0.31080773439910653  0.321531287307979  0.2915000303840661  1.0000
  H   H71       1.0  0.33647859838275823  0.36280315104925637  0.3500264323702876  1.0000
  H   H72       1.0  0.3621316146017839  0.3416884254372507  0.3552687214347617  1.0000
  H   H73       1.0  0.33023425044424554  0.3913321891095796  0.248874881629595  1.0000
  H   H74       1.0  0.3025350266688755  0.35474375002473024  0.2724139373996937  1.0000
  H   H75       1.0  0.3464739403101743  0.407183320773581  0.3219135673493053  1.0000
  H   H76       1.0  0.37650320316199115  0.44387105468501803  0.29714004199209537  1.0000
  H   H77       1.0  0.282179020674101  0.33503811402118777  0.35464460298179834  1.0000
  H   H78       1.0  0.2660281618311344  0.35375685720578287  0.38197426053239514  1.0000
  H   H79       1.0  0.27982232799063267  0.42008157379883615  0.34257066438072026  1.0000
  H   H80       1.0  0.2944065497075086  0.4024688383419572  0.316501481352775  1.0000
  H   H81       1.0  0.2651500265733296  0.36232818391249133  0.2886899676436403  1.0000
  H   H82       1.0  0.22078757619273484  0.3302797808414489  0.2769831575443055  1.0000
  H   H83       1.0  0.22005153244891013  0.2692735740009765  0.31612517463848827  1.0000
  H   H84       1.0  0.26748654702825436  0.30082153351126495  0.3255879117709181  1.0000
  C   C133      1.0  0.02823612060113344  0.22574813980821562  0.19668450570262416  1.0000
  C   C134      1.0  0.04703065122662039  0.2464592251307322  0.1841883693245415  1.0000
  C   C135      1.0  0.05202006114567469  0.27291649825953784  0.18668637283848555  1.0000
  C   C136      1.0  0.03989812794734156  0.27947143797702245  0.20204458182807425  1.0000
  C   C137      1.0  0.024458286106084845  0.2590687880154178  0.2161805588472764  1.0000
  C   C138      1.0  0.01858064325810674  0.2323316181595956  0.21353723363472563  1.0000
  H   H85       1.0  0.055119367345031145  0.2409725173271642  0.171172134235656  1.0000
  H   H86       1.0  0.06549119193795262  0.2883686852665485  0.17612989871127918  1.0000
  H   H87       1.0  0.01621543092913057  0.2640890092347603  0.22953026899191187  1.0000
  H   H88       1.0  0.004007528742728269  0.2157179402092565  0.2228745351957266  1.0000
  C   C139      1.0  0.48908688829579094  0.28823398142077983  0.21114019045876098  1.0000
  C   C140      1.0  0.016376503231017848  0.3079511967895361  0.21534534150581072  1.0000
  C   C141      1.0  0.020372878404953186  0.32888078954001576  0.2288633188804119  1.0000
  C   C142      1.0  0.4988220162808016  0.32975360892316335  0.23801858589263175  1.0000
  C   C143      1.0  0.4719775915124251  0.30977294551329443  0.23366352404070356  1.0000
  C   C144      1.0  0.46755771752278924  0.28973726560064544  0.21949389357550836  1.0000
  C   C145      1.0  0.04258183921749778  0.3091346954281585  0.2041020311399265  1.0000
  C   C146      1.0  0.041914993735745525  0.32436159944237  0.18410117630537748  1.0000
  C   C147      1.0  0.05189458808315714  0.3525050095398067  0.1828361126764542  1.0000
  C   C148      1.0  0.04779928447176607  0.3647103939727727  0.16615471137849952  1.0000
  C   C149      1.0  0.03406712831672805  0.3485963357162177  0.14973687775075464  1.0000
  C   C150      1.0  0.025378697761691313  0.3209309687005844  0.15001757808437907  1.0000
  C   C151      1.0  0.028071561720431217  0.308977045857388  0.1671428989290249  1.0000
  C   C152      1.0  0.07012643627141374  0.31653788524712767  0.23724455663478994  1.0000
  C   C153      1.0  0.09359604080189662  0.3280083632573211  0.249056916178376  1.0000
  C   C154      1.0  0.1185345823286278  0.3468757580524884  0.24100303467138548  1.0000
  C   C155      1.0  0.11856056780111289  0.3545641105542954  0.22061669491000616  1.0000
  C   C156      1.0  0.09528481245350971  0.34244547693187166  0.20857946915910244  1.0000
  C   C157      1.0  0.07033875647742314  0.32372875576426496  0.2170723751660941  1.0000
  C   C158      1.0  0.14622984320962648  0.3605356251300197  0.25533481355818416  1.0000
  C   C159      1.0  0.12527900840276185  0.4136948767114602  0.29101817422552817  1.0000
  C   C160      1.0  0.12203030486622202  0.3900877870987177  0.3000480056663192  1.0000
  C   C161      1.0  0.128805160557205  0.37344981758996815  0.2892223039711679  1.0000
  C   C162      1.0  0.13980584339215507  0.3802565684281912  0.2694631420669331  1.0000
  C   C163      1.0  0.1426790906822502  0.40422648192163074  0.26112320626900104  1.0000
  C   C164      1.0  0.135222801263142  0.4206089466865738  0.27156342303732206  1.0000
  C   C165      1.0  0.1744592581909531  0.3741820524557003  0.24314614730031117  1.0000
  C   C166      1.0  0.17744038669021484  0.36040837163204104  0.22653358259643344  1.0000
  C   C167      1.0  0.20136085807334686  0.3706031642992824  0.21575071255981876  1.0000
  C   C168      1.0  0.22320332451368424  0.3952254514005246  0.2213800162532138  1.0000
  C   C169      1.0  0.2207160512294501  0.4094697987072786  0.23771417517660307  1.0000
  C   C170      1.0  0.19736902882028023  0.39887841669556123  0.248802985631337  1.0000
  C   C171      1.0  0.13863209046222547  0.3116379137408988  0.2622475373055895  1.0000
  C   C172      1.0  0.14204329633614005  0.29302296052597987  0.273265981464156  1.0000
  C   C173      1.0  0.1592067492429792  0.30166090276816243  0.2899060808056645  1.0000
  C   C174      1.0  0.1717418133758119  0.32843967979759564  0.2963553048196193  1.0000
  C   C175      1.0  0.1683730227464511  0.3471677833822092  0.2853598061924119  1.0000
  C   C176      1.0  0.1512696631283942  0.3391274933393613  0.26799768746414165  1.0000
  H   H89       1.0  0.4836911787578594  0.27198854851927334  0.20005902851448001  1.0000
  H   H90       1.0  0.04102218111337904  0.34491571092419704  0.2325177771748468  1.0000
  H   H91       1.0  0.003104036480117426  0.34605024009484353  0.24891618358604115  1.0000
  H   H92       1.0  0.4471388310944286  0.2740487010576178  0.2148114754761925  1.0000
  H   H93       1.0  0.06190360180726643  0.3647549284917039  0.19629137226534088  1.0000
  H   H94       1.0  0.05561564749939916  0.38715456016250316  0.16666716157884937  1.0000
  H   H95       1.0  0.014879222156051827  0.30756518469772376  0.13736311753991967  1.0000
  H   H96       1.0  0.018916580391948535  0.2871643543857782  0.16666716157884937  1.0000
  H   H97       1.0  0.05129059698249191  0.3032422122774637  0.24522654214352238  1.0000
  H   H98       1.0  0.09273869049061302  0.3228236004492818  0.2647302437986276  1.0000
  H   H99       1.0  0.13719566824754842  0.3701417884408376  0.2134974613803701  1.0000
  H   H100      1.0  0.09649636803836208  0.3469772665777067  0.1920969291329253  1.0000
  H   H101      1.0  0.11324181459019038  0.38393149398496973  0.31511404155660394  1.0000
  H   H102      1.0  0.1252437543366084  0.35472180814555626  0.2968815223387845  1.0000
  H   H103      1.0  0.14829082858677003  0.4092139121006472  0.24554777958254764  1.0000
  H   H104      1.0  0.1368632764748523  0.4386014869833284  0.2646155161418328  1.0000
  H   H105      1.0  0.1608880556894881  0.34040883048913634  0.22187411002847648  1.0000
  H   H106      1.0  0.20372348562658557  0.3579813096054981  0.20428559539079816  1.0000
  H   H107      1.0  0.23790702301139677  0.4285094664057332  0.2429059840720876  1.0000
  H   H108      1.0  0.19746507219860607  0.4093724140085025  0.2627278637620368  1.0000
  H   H109      1.0  0.12470353929976431  0.3035262813804943  0.2488351093752395  1.0000
  H   H110      1.0  0.13191918626656007  0.2715306619752026  0.26899046412093874  1.0000
  H   H111      1.0  0.18627562160961056  0.3349150485495984  0.3088330847726148  1.0000
  H   H112      1.0  0.1788612134306077  0.36820855856373413  0.2904384171331921  1.0000
  C   C177      1.0  0.28159465807801803  0.4298600398664112  0.18084138115031637  1.0000
  C   C178      1.0  0.2936120246709562  0.41489324741924877  0.17432179084019414  1.0000
  C   C179      1.0  0.3196417548840919  0.4281617492033401  0.16598032534017154  1.0000
  C   C180      1.0  0.33468240303263586  0.4564851640943909  0.16559942951961298  1.0000
  C   C181      1.0  0.3219968202060546  0.471104211979932  0.1719951139603969  1.0000
  C   C182      1.0  0.29584417013561254  0.45798526701250697  0.17984860449351925  1.0000
  H   H113      1.0  0.28327895471154174  0.392983179603132  0.17667294295344096  1.0000
  H   H114      1.0  0.328477591144204  0.41546140127568515  0.16106539252308502  1.0000
  H   H115      1.0  0.3336876158540345  0.49364316792744056  0.17265594526353456  1.0000
  H   H116      1.0  0.28605432831110816  0.46981695111997884  0.184179191111998  1.0000
  C   C183      1.0  0.35465197650195723  0.4498926318531561  0.12415949394493614  1.0000
  C   C184      1.0  0.3738061606756663  0.4619684356980054  0.1399120601334806  1.0000
  C   C185      1.0  0.3995704493582499  0.4643676501389132  0.13733818339584294  1.0000
  C   C186      1.0  0.4054234740673799  0.4544125329306155  0.12000268148394923  1.0000
  C   C187      1.0  0.385495378976887  0.44094736763498665  0.1050964994621318  1.0000
  C   C188      1.0  0.3603842223372479  0.4392346135387996  0.1072527675290366  1.0000
  C   C189      1.0  0.36642603318886313  0.4728261143609178  0.16036019985932004  1.0000
  C   C190      1.0  0.3775385549607264  0.46691558922797155  0.1813874847966593  1.0000
  C   C191      1.0  0.3795615956801599  0.48202900211196303  0.19863946497440654  1.0000
  C   C192      1.0  0.3847632711300671  0.47523557797373944  0.21750986996400468  1.0000
  C   C193      1.0  0.38674975012880514  0.45192931990021545  0.22016084368700842  1.0000
  C   C194      1.0  0.3855689535525622  0.43704886461759346  0.20335859592389663  1.0000
  C   C195      1.0  0.3813018783981202  0.4441380591769901  0.18415165647436715  1.0000
  C   C196      1.0  0.36759655280547066  0.012317041362454156  0.13800436865629773  1.0000
  C   C197      1.0  0.38169244297937704  0.03814498680727254  0.12992172875000405  1.0000
  C   C198      1.0  0.40637736635099353  0.058845851987403025  0.13881862907912224  1.0000
  C   C199      1.0  0.417261406664005  0.050656295242113  0.15462228731749264  1.0000
  C   C200      1.0  0.40467942747646934  0.023934792987056825  0.16088641737848525  1.0000
  C   C201      1.0  0.37908263136385967  0.004358409084591728  0.1539017976328217  1.0000
  C   C202      1.0  0.4243475685865816  0.08804303608927405  0.12789487347996367  1.0000
  C   C203      1.0  0.47151969620581574  0.06451887599129716  0.08830358288177269  1.0000
  C   C204      1.0  0.44506603371184567  0.05815351573286806  0.08297195921520767  1.0000
  C   C205      1.0  0.4310237045332668  0.06650603984536176  0.09505446414799305  1.0000
  C   C206      1.0  0.44244937920930955  0.08105169973006503  0.11292077268532376  1.0000
  C   C207      1.0  0.4685905576334234  0.08622721198735642  0.11876239902889361  1.0000
  C   C208      1.0  0.482795806845007  0.07735422897828322  0.10660157334906967  1.0000
  C   C209      1.0  0.44336376710424913  0.11405352277062576  0.14212737470108244  1.0000
  C   C210      1.0  0.43853783588071615  0.11558208633212667  0.16275724303528472  1.0000
  C   C211      1.0  0.45394091318263396  0.13898692127152745  0.17398219697608172  1.0000
  C   C212      1.0  0.4735078770718406  0.16214486023675279  0.16448121729138696  1.0000
  C   C213      1.0  0.47857040511986576  0.16144523891674697  0.14407284981990304  1.0000
  C   C214      1.0  0.46377018579540646  0.1373892440814778  0.13320232785349723  1.0000
  C   C215      1.0  0.4091114038210142  0.10800613697322778  0.09752722757744227  1.0000
  C   C216      1.0  0.3920972608347797  0.11646760667774879  0.08872899303316754  1.0000
  C   C217      1.0  0.3711175734065502  0.1159907166652857  0.10006010829905193  1.0000
  C   C218      1.0  0.3674226000229063  0.1071240481641695  0.11994378795346126  1.0000
  C   C219      1.0  0.3844930467443972  0.0986045384748329  0.12853903103031386  1.0000
  C   C220      1.0  0.405165610346529  0.0979440095127305  0.1173608859734891  1.0000
  H   H117      1.0  0.33469514377773435  0.4475654262392061  0.12504412066392806  1.0000
  H   H118      1.0  0.41526388078238313  0.47472338330188035  0.14917394738141512  1.0000
  H   H119      1.0  0.4257382534612248  0.4566881468104876  0.11897502761948651  1.0000
  H   H120      1.0  0.3437967247403375  0.4271422599734492  0.09654255834172532  1.0000
  H   H121      1.0  0.375704461917264  0.49921113467443134  0.19775223776186052  1.0000
  H   H122      1.0  0.3856145794990982  0.48733690403289937  0.23054599118006794  1.0000
  H   H123      1.0  0.3874816640752916  0.41866810605838434  0.20561031740125466  1.0000
  H   H124      1.0  0.37644558345788753  0.42953665817915904  0.17191709915377654  1.0000
  H   H125      1.0  0.34800120938819223  0.49683100717585604  0.1311875572299726  1.0000
  H   H126      1.0  0.37272647161719763  0.04236918035433086  0.11676399621773836  1.0000
  H   H127      1.0  0.43752841307552315  0.06473600609922123  0.16131779336803345  1.0000
  H   H128      1.0  0.41616608331217525  0.018167049705127437  0.1711415401938441  1.0000
  H   H129      1.0  0.43573141481562716  0.04783119164274627  0.0691616557710936  1.0000
  H   H130      1.0  0.40990374004861885  0.06013735203205386  0.09054597317637804  1.0000
  H   H131      1.0  0.4781792490753447  0.09689570045708064  0.13275075979635315  1.0000
  H   H132      1.0  0.0027560278028237995  0.08180371432460348  0.11211446671337036  1.0000
  H   H133      1.0  0.42121956503813873  0.09793215641029887  0.16949405104227164  1.0000
  H   H134      1.0  0.4502491753915558  0.13916351659493453  0.19013279164859942  1.0000
  H   H135      1.0  0.4937014469638516  0.17968046602478766  0.1360899464899162  1.0000
  H   H136      1.0  0.4677370139177053  0.13809293983648877  0.11721464645362809  1.0000
  H   H137      1.0  0.4259224695025535  0.11013066124952305  0.08803282561173707  1.0000
  H   H138      1.0  0.39550754079122785  0.12390017277965311  0.07318645494166195  1.0000
  H   H139      1.0  0.35239755727300676  0.10762614436980625  0.1297055818446028  1.0000
  H   H140      1.0  0.38137686353556377  0.09195691286677836  0.1441433690862796  1.0000
  C   C221      1.0  0.28172274357953986  0.2477220428572796  0.028796335915060697  1.0000
  C   C222      1.0  0.29967513907678994  0.2525118618864311  0.013087626285453622  1.0000
  C   C223      1.0  0.32713770249533125  0.27104687761525487  0.01595662844743005  1.0000
  C   C224      1.0  0.3368367065318079  0.28647768413034036  0.033748134552530576  1.0000
  C   C225      1.0  0.3185710683605638  0.2788912983662818  0.04999617124821925  1.0000
  C   C226      1.0  0.2913459409778627  0.26027421913243975  0.04729945943270671  1.0000
  H   H141      1.0  0.2921969572820736  0.24324003662217059  0.9982514605793632  1.0000
  H   H142      1.0  0.34059904758860243  0.2746529254406476  0.0031541557797247766  1.0000
  H   H143      1.0  0.3254982229632696  0.29004365021690587  0.06407539631986023  1.0000
  H   H144      1.0  0.2769335582500688  0.25751374470534033  0.05901758932751202  1.0000
  C   C227      1.0  0.351356650556561  0.3436978101555981  0.05131370365885001  1.0000
  C   C228      1.0  0.37109919943554404  0.33566214144842377  0.04973795753532657  1.0000
  C   C229      1.0  0.3953286544940079  0.3504764199921012  0.06111985891061877  1.0000
  C   C230      1.0  0.398735958877434  0.3709244214069524  0.074384211678599  1.0000
  C   C231      1.0  0.3780481674534271  0.3768181088606943  0.07693957902094042  1.0000
  C   C232      1.0  0.35531946293357847  0.3645219033619253  0.06433039765836267  1.0000
  C   C233      1.0  0.36767434681384414  0.31131101109092674  0.03529221584277869  1.0000
  C   C234      1.0  0.3815351451906339  0.32865869067925224  0.015489457428961882  1.0000
  C   C235      1.0  0.4095981203274385  0.34177399949829057  0.01144665366478715  1.0000
  C   C236      1.0  0.4201039940616572  0.35772960882497445  0.994081492680397  1.0000
  C   C237      1.0  0.40301814089593724  0.35928371445852897  0.9797451246873269  1.0000
  C   C238      1.0  0.3749568763827089  0.3468875645599939  0.9831961326037126  1.0000
  C   C239      1.0  0.36490586547780784  0.33295421660145297  0.0013598152274552078  1.0000
  C   C240      1.0  0.37869940029239635  0.28872023333932223  0.06502778884146561  1.0000
  C   C241      1.0  0.3922529222354548  0.2774106855800731  0.07411834945525334  1.0000
  C   C242      1.0  0.40774696251429043  0.2691144734377771  0.06285316434947365  1.0000
  C   C243      1.0  0.40493653869678176  0.26879267395107975  0.041584492422238245  1.0000
  C   C244      1.0  0.39247885627903356  0.2819941952553686  0.032277173022213  1.0000
  C   C245      1.0  0.38046838460436344  0.2938411765815804  0.044183456274161675  1.0000
  C   C246      1.0  0.42796636604587346  0.26123357435228145  0.07535954973156332  1.0000
  C   C247      1.0  0.4764259383517191  0.32703136111990544  0.119281426948233  1.0000
  C   C248      1.0  0.4661767933543361  0.30006564060027524  0.12496794149981637  1.0000
  C   C249      1.0  0.4515646136567457  0.27882950351142255  0.11137975079925685  1.0000
  C   C250      1.0  0.4452198663315376  0.28401187667774036  0.09201571094502314  1.0000
  C   C251      1.0  0.4559881959230235  0.31136028798306753  0.08643734633124493  1.0000
  C   C252      1.0  0.4709498093761758  0.33234529041656086  0.09985298663598517  1.0000
  C   C253      1.0  0.45257433091922694  0.2619304927135305  0.06313600626602493  1.0000
  C   C254      1.0  0.4621397739793299  0.24407309381055023  0.06787379958102036  1.0000
  C   C255      1.0  0.483218030138316  0.24431586783162385  0.057692255436219225  1.0000
  C   C256      1.0  0.49758664687016035  0.26430096168774325  0.043531038332522275  1.0000
  C   C257      1.0  0.4883548273006989  0.28193722081330946  0.03790953611978925  1.0000
  C   C258      1.0  0.4664706795605514  0.2812151706111431  0.04805191989107112  1.0000
  C   C259      1.0  0.3964567357256341  0.22309706072436977  0.102876136877631  1.0000
  C   C260      1.0  0.3807981021395596  0.19595076257041832  0.10856877023757676  1.0000
  C   C261      1.0  0.37030621130313773  0.1752794464926769  0.09381051040791999  1.0000
  C   C262      1.0  0.37752582776192295  0.18299478772319383  0.07380292488417234  1.0000
  C   C263      1.0  0.39502244937802267  0.21007954934147902  0.06859015907004669  1.0000
  C   C264      1.0  0.4060017653499362  0.23080458472102205  0.08303804234552142  1.0000
  H   H145      1.0  0.33229274256494795  0.3339004156769518  0.041975484276594706  1.0000
  H   H146      1.0  0.41219901615254556  0.3464655286897594  0.059266165917233944  1.0000
  H   H147      1.0  0.4172534276513482  0.3815975454035041  0.08334275900196825  1.0000
  H   H148      1.0  0.3380005578365983  0.3683161104868936  0.06558429446202461  1.0000
  H   H149      1.0  0.4236366282010751  0.3398350286353508  0.022162782799189054  1.0000
  H   H150      1.0  0.4419039494300117  0.36801624838967206  0.9912469547065218  1.0000
  H   H151      1.0  0.3616641118900176  0.34799677228101455  0.9717478421576885  1.0000
  H   H152      1.0  0.34351208409601963  0.3253027965352946  0.004599724255338611  1.0000
  H   H153      1.0  0.3661412528535013  0.29390438095191557  0.07445197748121243  1.0000
  H   H154      1.0  0.3913946175780089  0.27676846512280107  0.09077038047306854  1.0000
  H   H155      1.0  0.4151867890249763  0.260875027539112  0.0321251206344077  1.0000
  H   H156      1.0  0.3927910450410305  0.2838416329396436  0.015580321733143313  1.0000
  H   H157      1.0  0.46965047913860386  0.2950204350876391  0.1403893271857467  1.0000
  H   H158      1.0  0.44647013571862765  0.2587779153477259  0.11644260580850405  1.0000
  H   H159      1.0  0.4525302238403214  0.3161215097531001  0.07089266665681253  1.0000
  H   H160      1.0  0.47960441352035516  0.35337226553627  0.09518418288527564  1.0000
  H   H161      1.0  0.45324860317757315  0.22950749807045426  0.08023746375805739  1.0000
  H   H162      1.0  0.4911280079758917  0.23061757245156525  0.0626796961324  1.0000
  H   H163      1.0  0.4993460043225873  0.2970153491075638  0.025873840070976113  1.0000
  H   H164      1.0  0.4610465515265564  0.29664846649803767  0.04400876429541555  1.0000
  H   H165      1.0  0.4008535524536462  0.2385038102332615  0.11435700997818479  1.0000
  H   H166      1.0  0.37500671695703197  0.19148966248952384  0.1244863912816966  1.0000
  H   H167      1.0  0.36849216282900926  0.16835840107030886  0.06138067311706547  1.0000
  H   H168      1.0  0.39898187699706766  0.21433843692992927  0.05264653309038672  1.0000
  C   C265      1.0  0.2552207651034956  0.24232574180868813  0.8402867741939171  1.0000
  C   C266      1.0  0.2553323956245211  0.22203510889516662  0.8517977824256557  1.0000
  C   C267      1.0  0.23867262839117614  0.1947059290948057  0.8470480574343536  1.0000
  C   C268      1.0  0.21921984014423943  0.1865454233077754  0.8316516058925  1.0000
  C   C269      1.0  0.2208868829239162  0.2075301819657623  0.8189153062861937  1.0000
  C   C270      1.0  0.23901095136447242  0.2347278246481181  0.8230623286538007  1.0000
  H   H169      1.0  0.26914870607848435  0.22787773860878996  0.8648966214274334  1.0000
  H   H170      1.0  0.2382611723350463  0.1791457568885637  0.857430145523232  1.0000
  H   H171      1.0  0.2090891915059805  0.20219187066744262  0.8046187105474789  1.0000
  H   H172      1.0  0.241036546727174  0.25135985141280215  0.8135904133088273  1.0000
  C   C271      1.0  0.15783591352283832  0.16146099073040554  0.8151063480806084  1.0000
  C   C272      1.0  0.17118443963049987  0.14640751921593764  0.8153419222025603  1.0000
  C   C273      1.0  0.16019562199900722  0.12298120353206543  0.8031884390927713  1.0000
  C   C274      1.0  0.138117626841391  0.11579237613855291  0.7904001296153846  1.0000
  C   C275      1.0  0.12633196116925433  0.1319811815150994  0.7889637393523146  1.0000
  C   C276      1.0  0.13572151917843372  0.15449152854933884  0.8020702268645455  1.0000
  C   C277      1.0  0.19679700404010309  0.15462697010737564  0.8303268838820435  1.0000
  C   C278      1.0  0.1809731056505598  0.14246262591978123  0.8513679361381981  1.0000
  C   C279      1.0  0.16834517999090992  0.11474540413504729  0.8565796311608603  1.0000
  C   C280      1.0  0.15619205389903557  0.10560977709651355  0.8753246005790296  1.0000
  C   C281      1.0  0.15683319826339367  0.1241481732330343  0.889535533000671  1.0000
  C   C282      1.0  0.16816378715560587  0.1515067886239964  0.88389093228637  1.0000
  C   C283      1.0  0.1790376390486613  0.16037744310320953  0.8649256857671547  1.0000
  C   C284      1.0  0.2259885468315015  0.1508717472963554  0.8018499497634993  1.0000
  C   C285      1.0  0.2409326135924124  0.14045897289906695  0.793201014143267  1.0000
  C   C286      1.0  0.24506943675359785  0.12089945565373071  0.8032893994307506  1.0000
  C   C287      1.0  0.23702139556790416  0.11551896121904374  0.8232917839673902  1.0000
  C   C288      1.0  0.22226290546614913  0.1260450758070205  0.8321212244343131  1.0000
  C   C289      1.0  0.2158509510047667  0.14314632124750742  0.8213398840997891  1.0000
  C   C290      1.0  0.25527389285669777  0.10373332658548223  0.7904322533592871  1.0000
  C   C291      1.0  0.1825748769525657  0.05936369214166363  0.7516604241710287  1.0000
  C   C292      1.0  0.20609248817672238  0.08067620976741235  0.7437992851274534  1.0000
  C   C293      1.0  0.22935853668072162  0.0941880730710961  0.7554693823766139  1.0000
  C   C294      1.0  0.22950999696072333  0.08711687340938594  0.775955152773882  1.0000
  C   C295      1.0  0.20556733237517266  0.06610532378047224  0.7840380986205938  1.0000
  C   C296      1.0  0.18270909583887618  0.052180694507085235  0.771880026404533  1.0000
  C   C297      1.0  0.263488542320388  0.0848711671487764  0.8031731420718653  1.0000
  C   C298      1.0  0.2810954587717251  0.095115813694647  0.8197719394569277  1.0000
  C   C299      1.0  0.29197539038395715  0.0808803086649216  0.8288736668959767  1.0000
  C   C300      1.0  0.28523389903036156  0.055400825626746496  0.8212526910806252  1.0000
  C   C301      1.0  0.2679654337087945  0.044865845853051506  0.8048940569237863  1.0000
  C   C302      1.0  0.2572215902752757  0.05900412984081606  0.7958458690579081  1.0000
  C   C303      1.0  0.3022064091296769  0.14805481848427646  0.7866829535352351  1.0000
  C   C304      1.0  0.32858620335623684  0.1625427316135315  0.7791522301432287  1.0000
  C   C305      1.0  0.33691071819562646  0.1510439583107652  0.7643401247999829  1.0000
  C   C306      1.0  0.3190659376877286  0.1254548582819582  0.7567267974950842  1.0000
  C   C307      1.0  0.2925866242964731  0.11152021481886043  0.7639133379167065  1.0000
  C   C308      1.0  0.2837456650910578  0.12227299662321721  0.7790680965282459  1.0000
  H   H173      1.0  0.1637273610972937  0.1789149193920614  0.8252788669830751  1.0000
  H   H174      1.0  0.168174036150086  0.10908105044943961  0.8036641764429469  1.0000
  H   H175      1.0  0.13023367457922908  0.09756832346361625  0.7813672387704124  1.0000
  H   H176      1.0  0.12470277923826509  0.16589156945114725  0.8027065829342334  1.0000
  H   H177      1.0  0.16674267901045087  0.0991221506034385  0.8465264290214602  1.0000
  H   H178      1.0  0.1463938858627659  0.08382208784791928  0.8781882028926263  1.0000
  H   H179      1.0  0.16825409415830292  0.16694337712228444  0.8940190898282093  1.0000
  H   H180      1.0  0.18689085699613764  0.18161349009938355  0.8611962720702805  1.0000
  H   H181      1.0  0.22156330717672032  0.16442727933228318  0.7925753659882128  1.0000
  H   H182      1.0  0.24786119466657347  0.14554349841762906  0.7778091517076849  1.0000
  H   H183      1.0  0.23976150061116366  0.10075782181702729  0.8321166353280414  1.0000
  H   H184      1.0  0.21589966951280276  0.12033111207502657  0.8474595472967241  1.0000
  H   H185      1.0  0.20580542725934436  0.08800854614337916  0.7283737692458787  1.0000
  H   H186      1.0  0.24721761255411784  0.11147442455182562  0.7489528514706729  1.0000
  H   H187      1.0  0.20520513762835776  0.060828481872556746  0.7997649658140163  1.0000
  H   H188      1.0  0.1644755015643132  0.03472385354274207  0.7785816512634361  1.0000
  H   H189      1.0  0.2863957692506508  0.11489901577905252  0.825483847063215  1.0000
  H   H190      1.0  0.3067159261112959  0.08930723865557506  0.8421101790859082  1.0000
  H   H191      1.0  0.2626990709031726  0.02518754161379475  0.7988425554533866  1.0000
  H   H192      1.0  0.2450374894017095  0.050463700054847564  0.7824670945735512  1.0000
  H   H193      1.0  0.2979392274041252  0.1572739212364417  0.7998383915143649  1.0000
  H   H194      1.0  0.3418550510194917  0.18231674930875108  0.7856060432634553  1.0000
  H   H195      1.0  0.32651922461292837  0.11574760264439152  0.7464074271919203  1.0000
  H   H196      1.0  0.2784359125811425  0.09052781700975335  0.7590412367581566  1.0000
  C   C309      1.0  0.054187955587387225  0.2314242861136158  0.6810692617962727  1.0000
  C   C310      1.0  0.03603681939368275  0.209269127047085  0.6694848278641855  1.0000
  C   C311      1.0  0.0285787318275238  0.18303146754731595  0.6754812600593237  1.0000
  C   C312      1.0  0.04071647306416942  0.1780383528018745  0.6921427752301008  1.0000
  C   C313      1.0  0.057564566538416365  0.20064053348141905  0.7044798225907614  1.0000
  C   C314      1.0  0.06396400540931801  0.22673199039642364  0.6991947018677505  1.0000
  H   H197      1.0  0.02839363241948019  0.2124417225420269  0.6549878411516026  1.0000
  H   H198      1.0  0.013155996731443667  0.16565341433271105  0.6671703886011131  1.0000
  H   H199      1.0  0.06542149472767991  0.19809467658911328  0.7190089330472467  1.0000
  H   H200      1.0  0.07865798232176466  0.2444721767417847  0.7081342808851963  1.0000
  C   C315      1.0  0.0831903216784955  0.16101834452334277  0.7111141405576782  1.0000
  C   C316      1.0  0.055063572527080946  0.14439483419900442  0.71263160503155  1.0000
  C   C317      1.0  0.04587978380773365  0.12319053667238589  0.7266666217127726  1.0000
  C   C318      1.0  0.0634212648263585  0.11999376231918958  0.739702742928836  1.0000
  C   C319      1.0  0.0914462233819649  0.13797446814811448  0.7386380702737808  1.0000
  C   C320      1.0  0.10132315381409354  0.15915721117557935  0.724466910106495  1.0000
  C   C321      1.0  0.03543682841306791  0.14764829868715496  0.6966293914618201  1.0000
  C   C322      1.0  0.040811926201216216  0.1342643514237611  0.6765811158624626  1.0000
  C   C323      1.0  0.03178858363943575  0.10642983280760474  0.6757673143502653  1.0000
  C   C324      1.0  0.03622358294633812  0.09476587609676582  0.6587157251463863  1.0000
  C   C325      1.0  0.050205758271248783  0.11052818734310209  0.6423234375435544  1.0000
  C   C326      1.0  0.06029249406659696  0.13870203985092822  0.6432795013501771  1.0000
  C   C327      1.0  0.05631018802310082  0.1503592368420495  0.6603540360854151  1.0000
  C   C328      1.0  0.0009061270392119197  0.14316035552243805  0.7235567373625901  1.0000
  C   C329      1.0  0.47607960537776134  0.1303236972063013  0.7330271230054732  1.0000
  C   C330      1.0  0.45344568319162265  0.10786726886582908  0.7242145092615466  1.0000
  C   C331      1.0  0.4567807390150616  0.09995273569376961  0.7050473420663725  1.0000
  C   C332      1.0  0.4821437645059917  0.11271223723480367  0.6955540108921309  1.0000
  C   C333      1.0  0.004785549644401996  0.13317121602258045  0.7052966835071399  1.0000
  C   C334      1.0  0.4250892977304005  0.09162936170303307  0.7364521259863185  1.0000
  C   C335      1.0  0.45874814079956183  0.05115231292699125  0.7756415638453097  1.0000
  C   C336      1.0  0.4568537691076825  0.07296567860581864  0.7835057622930662  1.0000
  C   C337      1.0  0.4449092457513414  0.0850675030040361  0.7716888136432085  1.0000
  C   C338      1.0  0.4359629676403443  0.07645554448924988  0.7516910182128406  1.0000
  C   C339      1.0  0.43925653611335175  0.05477326218584872  0.7443943392406954  1.0000
  C   C340      1.0  0.4504664590433744  0.04245083079148653  0.7559405306205176  1.0000
  C   C341      1.0  0.3981214903678681  0.07219186360022863  0.7230244010350628  1.0000
  C   C342      1.0  0.39043434437764396  0.08307453631057869  0.7066856530054014  1.0000
  C   C343      1.0  0.3652927424294733  0.06853998632114894  0.6975288562910908  1.0000
  C   C344      1.0  0.3462833804341399  0.04314385259079965  0.7046312630977303  1.0000
  C   C345      1.0  0.3536366993983067  0.03203611101832857  0.720410140162233  1.0000
  C   C346      1.0  0.37946927969934724  0.045761314562280914  0.7288801006378658  1.0000
  C   C347      1.0  0.3976992027410206  0.10224786678073759  0.7635829222651376  1.0000
  C   C348      1.0  0.38806630461663366  0.11864446003024097  0.7712390812285731  1.0000
  C   C349      1.0  0.39548031478352785  0.14354691360539845  0.7618727153278508  1.0000
  C   C350      1.0  0.41316489654246286  0.15238269379786348  0.7457144721448802  1.0000
  C   C351      1.0  0.4224235407322062  0.13602029280270295  0.7380996151378908  1.0000
  C   C352      1.0  0.41607394125096775  0.11132122496965513  0.7474415058051636  1.0000
  H   H201      1.0  0.09229676688090908  0.17707164634809416  0.6996367857719329  1.0000
  H   H202      1.0  0.024492368195035048  0.10723595951363674  0.7272173144653874  1.0000
  H   H203      1.0  0.055442905813536766  0.1018867762731294  0.7494790689898382  1.0000
  H   H204      1.0  0.12308633024674026  0.1723791166989343  0.7232018464775716  1.0000
  H   H205      1.0  0.020199472930499878  0.0942028884978844  0.6888936879896738  1.0000
  H   H206      1.0  0.0294171366550877  0.07307367120332872  0.6582063343502176  1.0000
  H   H207      1.0  0.07223075359647102  0.15178123580746372  0.6302602068571105  1.0000
  H   H208      1.0  0.06415612341381145  0.17179772324264156  0.6599119521812327  1.0000
  H   H209      1.0  0.01764987792974725  0.15992541663698207  0.7316366238051206  1.0000
  H   H210      1.0  0.4745143466178028  0.13817599058822255  0.7478224016257221  1.0000
  H   H211      1.0  0.44016277217215233  0.08253473639475291  0.6970408813241906  1.0000
  H   H212      1.0  0.4842157872734683  0.10622344130285365  0.6806378858067245  1.0000
  H   H213      1.0  0.46274812167276724  0.07884608839753048  0.7991117830213316  1.0000
  H   H214      1.0  0.4436903520316717  0.10222496845691255  0.7782084039533309  1.0000
  H   H215      1.0  0.4336455714954706  0.04800409148040423  0.728765372981071  1.0000
  H   H216      1.0  0.4512550216456506  0.02459166787531753  0.7501659052285159  1.0000
  H   H217      1.0  0.404292324585795  0.1037783009411833  0.7017707201883149  1.0000
  H   H218      1.0  0.36011855428471207  0.0784345379081225  0.6855910611760759  1.0000
  H   H219      1.0  0.33808663987675996  0.012863803183778624  0.7268455968573725  1.0000
  H   H220      1.0  0.3836841504864214  0.03651694952566821  0.7418749198974832  1.0000
  H   H221      1.0  0.3898918851748933  0.08219418177321076  0.7703197302721246  1.0000
  H   H222      1.0  0.37470419447912934  0.11192028058033211  0.7847601180073553  1.0000
  H   H223      1.0  0.41845442542142247  0.17171104395708056  0.7381990457737796  1.0000
  H   H224      1.0  0.4346890070463274  0.1427255521323639  0.7242389844949961  1.0000
  C   C353      1.0  0.06216571412204112  0.2698883768819082  0.527675325257529  1.0000
  C   C354      1.0  0.04010737172014057  0.26914909051315306  0.5371686564317709  1.0000
  C   C355      1.0  0.03140194373659005  0.28707638157128346  0.5306918977801853  1.0000
  C   C356      1.0  0.04526078432217388  0.3065130523357989  0.515434649128576  1.0000
  C   C357      1.0  0.06519132900321821  0.30396623599324524  0.5047542691320313  1.0000
  C   C358      1.0  0.07392706632561338  0.28648917449735223  0.5110612308515606  1.0000
  H   H225      1.0  0.029947046880611308  0.2549641470268506  0.5496556145973099  1.0000
  H   H226      1.0  0.013757676650779734  0.28597534766401855  0.5386815317993711  1.0000
  H   H227      1.0  0.07545278848087336  0.3170312147724166  0.49137243524349333  1.0000
  H   H228      1.0  0.08990179902732721  0.2855437283554105  0.5030823047470093  1.0000
  C   C359      1.0  0.08439993102086765  0.36719670721088327  0.5004940488097201  1.0000
  C   C360      1.0  0.05622630316639044  0.3529042610512944  0.49545215071911414  1.0000
  C   C361      1.0  0.047902867564429776  0.3623738300560124  0.4785198782783016  1.0000
  C   C362      1.0  0.06656523944764428  0.383233851054808  0.4667274048618933  1.0000
  C   C363      1.0  0.09380642159787772  0.3965280030089366  0.47114059539326414  1.0000
  C   C364      1.0  0.10206685629771883  0.3888522474854939  0.48832526867902504  1.0000
  C   C365      1.0  0.035154259160997264  0.32757352772277243  0.5095498851860513  1.0000
  C   C366      1.0  0.033859168368405614  0.34416240696209033  0.5291377204561393  1.0000
  C   C367      1.0  0.021928646882428553  0.36034913751628134  0.5273449096059604  1.0000
  C   C368      1.0  0.02170082869667995  0.37616853541932843  0.5433134697296971  1.0000
  C   C369      1.0  0.03292144442571889  0.3752962971902881  0.5619559491077962  1.0000
  C   C370      1.0  0.04492688062677241  0.3595314270377047  0.5639323242088469  1.0000
  C   C371      1.0  0.04668711520220742  0.3450754841974166  0.5478077344718694  1.0000
  C   C372      1.0  0.007593818974847016  0.2945124945806985  0.4801933723654144  1.0000
  C   C373      1.0  0.484173694171738  0.2784168875625095  0.46884757195946003  1.0000
  C   C374      1.0  0.4595385016648445  0.27705519786811666  0.47388335124170367  1.0000
  C   C375      1.0  0.45930065056910724  0.2904802955249399  0.4913831431581274  1.0000
  C   C376      1.0  0.482223018553045  0.30405547914386954  0.5037125420083352  1.0000
  C   C377      1.0  0.007307554423138023  0.307978642999774  0.49762279798567055  1.0000
  C   C378      1.0  0.4334763308220406  0.261185910169706  0.45918444385316226  1.0000
  C   C379      1.0  0.46512625960966275  0.3295978315281429  0.41601472115443866  1.0000
  C   C380      1.0  0.46689424901324234  0.3066410359977091  0.41167954542968827  1.0000
  C   C381      1.0  0.4562112670218991  0.2847030685126422  0.425017017957599  1.0000
  C   C382      1.0  0.4418871119688632  0.28427127178334327  0.4421940427329069  1.0000
  C   C383      1.0  0.4397245145093962  0.30703373327045014  0.44570164962664466  1.0000
  C   C384      1.0  0.45106924637431967  0.3293861209775976  0.43320092414229017  1.0000
  C   C385      1.0  0.4041383587164701  0.2504987443250701  0.4693003637782766  1.0000
  C   C386      1.0  0.3987939085780504  0.23945661082619812  0.4886618031389563  1.0000
  C   C387      1.0  0.3731575925074319  0.22990905975732534  0.4972036596128471  1.0000
  C   C388      1.0  0.35175021473971174  0.22848044813113705  0.4859572898427819  1.0000
  C   C389      1.0  0.356448047804908  0.23804704516805356  0.4659090142434242  1.0000
  C   C390      1.0  0.38266573907626783  0.24950402230762916  0.4579790386057722  1.0000
  C   C391      1.0  0.4118386674614406  0.2211601992733013  0.4328842758095367  1.0000
  C   C392      1.0  0.4046569655293247  0.19564104474613225  0.42579563632171274  1.0000
  C   C393      1.0  0.4132099310717157  0.18000254950311015  0.43655250142278706  1.0000
  C   C394      1.0  0.4283657802946246  0.19028092196840674  0.4545127336684804  1.0000
  C   C395      1.0  0.4349900381720543  0.2158900077858165  0.4613015515465476  1.0000
  C   C396      1.0  0.4278794540978933  0.23233518675975728  0.45038712713014184  1.0000
  H   H229      1.0  0.09236817425526704  0.3608768285782518  0.512939705018813  1.0000
  H   H230      1.0  0.026710622923384553  0.3525736240814067  0.47367684145947314  1.0000
  H   H231      1.0  0.05856702210102224  0.3891592819698048  0.45295090783398134  1.0000
  H   H232      1.0  0.12430767003342068  0.39925293838212594  0.4913831431581274  1.0000
  H   H233      1.0  0.014186705526144894  0.3618100966142655  0.5125175072418084  1.0000
  H   H234      1.0  0.012206239967227852  0.3888086400143199  0.5409041889370075  1.0000
  H   H235      1.0  0.054742143565855605  0.358986568550146  0.5777455340869332  1.0000
  H   H236      1.0  0.05844465487816142  0.334444701292375  0.5500931093952205  1.0000
  H   H237      1.0  0.02677816210949337  0.297142572401694  0.4746237270535524  1.0000
  H   H238      1.0  0.4848334564053751  0.26787016043540707  0.45554222317545184  1.0000
  H   H239      1.0  0.44045861509126405  0.28916569054705316  0.4962353581894995  1.0000
  H   H240      1.0  0.4788196289753441  0.31258744036189406  0.5177444992853767  1.0000
  H   H241      1.0  0.47776361936816225  0.3058329518290391  0.3982120482240768  1.0000
  H   H242      1.0  0.4602363760981098  0.2681999999956893  0.42202492066839226  1.0000
  H   H243      1.0  0.4287779899267481  0.3073415949534552  0.4588157856493283  1.0000
  H   H244      1.0  0.4490843384750824  0.3472867527290472  0.43703282787923436  1.0000
  H   H245      1.0  0.41433027370389575  0.237715268696468  0.4978185998532669  1.0000
  H   H246      1.0  0.3698916257827445  0.22098454221792257  0.5124333736268256  1.0000
  H   H247      1.0  0.33979632703056334  0.2356409668811999  0.45595677244200344  1.0000
  H   H248      1.0  0.38478186583083746  0.25467999591704144  0.4418391518478885  1.0000
  H   H249      1.0  0.40380354030022547  0.2322688126293738  0.42431641440010576  1.0000
  H   H250      1.0  0.3927704215306304  0.18877304581934332  0.4123006044784704  1.0000
  H   H251      1.0  0.43535735403056464  0.17862970688778848  0.4639142827172864  1.0000
  H   H252      1.0  0.4468567290356892  0.22250085098077352  0.47526008312324053  1.0000
  C   C397      1.0  0.22240633825088604  0.4133846921728405  0.3767013774261092  1.0000
  C   C398      1.0  0.2016114911414913  0.40661184524431576  0.3904579883268432  1.0000
  C   C399      1.0  0.19302558503657652  0.42505772004941345  0.39445357018748123  1.0000
  C   C400      1.0  0.20562088053307975  0.4508617587745513  0.385682258400001  1.0000
  C   C401      1.0  0.22565848201464017  0.4570002854373909  0.3712342221543172  1.0000
  C   C402      1.0  0.2340944750813988  0.43821062113302467  0.36698318004454955  1.0000
  H   H253      1.0  0.19234155115281268  0.3870286110223953  0.39844456294184744  1.0000
  H   H254      1.0  0.17580392637620632  0.4193416603363566  0.40446700007252595  1.0000
  H   H255      1.0  0.2351921013216531  0.4761697352454131  0.36293864771701245  1.0000
  H   H256      1.0  0.2493176427765881  0.44292120823163916  0.3555042955567136  1.0000
  C   C403      1.0  0.18880859024305785  0.4625452500079292  0.42919157496283683  1.0000
  C   C404      1.0  0.18180304670318184  0.47151406760829156  0.4114669168390953  1.0000
  C   C405      1.0  0.16158093330677717  0.47920696208207453  0.41362991559519874  1.0000
  C   C406      1.0  0.14749337012721012  0.474598625630616  0.4314494152485572  1.0000
  C   C407      1.0  0.15306694326403827  0.4630513637114194  0.44809257399424696  1.0000
  C   C408      1.0  0.17510645273681097  0.45879893157220736  0.4472007576754292  1.0000
  C   C409      1.0  0.1954620458599479  0.47281065441075015  0.3899516569348558  1.0000
  C   C410      1.0  0.17329910038664811  0.4629555205447993  0.37195318213689754  1.0000
  C   C411      1.0  0.18060100441870267  0.47353697104841613  0.3526208071159392  1.0000
  C   C412      1.0  0.16176391696116735  0.46290687085602744  0.33669354894864856  1.0000
  C   C413      1.0  0.1353915326894168  0.4415470147631585  0.33991816095562594  1.0000
  C   C414      1.0  0.12887108632759267  0.4296674892828879  0.35904402619435377  1.0000
  C   C415      1.0  0.1472169454229006  0.4408610910400784  0.3749253932989265  1.0000
  C   C416      1.0  0.24387198428023815  0.01179166036957034  0.3998580076735588  1.0000
  C   C417      1.0  0.2620742271211801  0.03896740687614114  0.40522420260737113  1.0000
  C   C418      1.0  0.25510741825689176  0.059216685680632396  0.40189710056032374  1.0000
  C   C419      1.0  0.23146877569909202  0.05141367888583444  0.3899409490202216  1.0000
  C   C420      1.0  0.21352795963736082  0.024441067899036332  0.3849571796090583  1.0000
  C   C421      1.0  0.2188101309938276  0.0037687984656159107  0.39049164177283635  1.0000
  C   C422      1.0  0.26981180953955447  0.08708176201187307  0.414758835738059  1.0000
  C   C423      1.0  0.20130356231676994  0.05425310016584064  0.4577511129942731  1.0000
  C   C424      1.0  0.22256144942644143  0.048695484099380154  0.46048316092807845  1.0000
  C   C425      1.0  0.24477388048011295  0.05959836835920365  0.4476045990273467  1.0000
  C   C426      1.0  0.24660115629520238  0.07735369670343228  0.43172476162486456  1.0000
  C   C427      1.0  0.2248837238979607  0.08261016635550733  0.4291349759854847  1.0000
  C   C428      1.0  0.20346695590997194  0.071981463693999  0.44253669600120055  1.0000
  C   C429      1.0  0.2750118647876097  0.11394925291575884  0.4028256297293158  1.0000
  C   C430      1.0  0.2808491673880793  0.11708856870521273  0.38221595346270937  1.0000
  C   C431      1.0  0.28970126158868775  0.1419295158221284  0.37250081548533104  1.0000
  C   C432      1.0  0.29472809417744505  0.16493426673935796  0.384033239546338  1.0000
  C   C433      1.0  0.28899871318295095  0.16198969895892226  0.4047897672136417  1.0000
  C   C434      1.0  0.27776759819155716  0.13642831935588662  0.41352742555512895  1.0000
  C   C435      1.0  0.3093312254617907  0.10887670613318164  0.44233018621897013  1.0000
  C   C436      1.0  0.33672413243350585  0.12006092791310527  0.44752352481654506  1.0000
  C   C437      1.0  0.3547010228162402  0.11825620928232751  0.4346342550011791  1.0000
  C   C438      1.0  0.34580080892244436  0.1061284015550637  0.4158357460098389  1.0000
  C   C439      1.0  0.31905092555118897  0.09696511858725229  0.4100886552554679  1.0000
  C   C440      1.0  0.3000630150697455  0.09718128376860213  0.42340318225201967  1.0000
  H   H257      1.0  0.20507651975603686  0.45790474681329485  0.4288473919924526  1.0000
  H   H258      1.0  0.1556541524689082  0.48675168452964507  0.40035822025718365  1.0000
  H   H259      1.0  0.13054791188605042  0.4787101630657353  0.43148306869455033  1.0000
  H   H260      1.0  0.18019414870872633  0.449204850355265  0.4598009137956726  1.0000
  H   H261      1.0  0.20092705085192514  0.4908060737275146  0.3502084669190685  1.0000
  H   H262      1.0  0.16775639289102307  0.47282942459177313  0.3218783842012216  1.0000
  H   H263      1.0  0.10825113707319031  0.4121839166670401  0.3616536979609114  1.0000
  H   H264      1.0  0.14110252730091405  0.4322776224989491  0.3898430480864234  1.0000
  H   H265      1.0  0.2494877050426095  0.4968705235619461  0.4053190441369882  1.0000
  H   H266      1.0  0.2796058209551176  0.04281951833751524  0.41510454841053374  1.0000
  H   H267      1.0  0.2265884281742992  0.0671480539128933  0.38587041175714437  1.0000
  H   H268      1.0  0.19400445602212701  0.019702661611755597  0.377937376715311  1.0000
  H   H269      1.0  0.2211648313769403  0.03495360612601031  0.47231693630093285  1.0000
  H   H270      1.0  0.2605635577409586  0.0540891131166521  0.44967581565801434  1.0000
  H   H271      1.0  0.2247307421421267  0.09615073194990174  0.41733944316489524  1.0000
  H   H272      1.0  0.18766972687720296  0.07744081704592476  0.44018860329213505  1.0000
  H   H273      1.0  0.2774680635248229  0.09935645170548255  0.373316146699619  1.0000
  H   H274      1.0  0.2947738459796006  0.1441839975437095  0.3563226861751827  1.0000
  H   H275      1.0  0.2929254955081318  0.1792402835738615  0.41399704409694194  1.0000
  H   H276      1.0  0.27513841498568276  0.13489715701747346  0.4298355795429779  1.0000
  H   H277      1.0  0.2956845798835208  0.11035080312746554  0.4534312342904287  1.0000
  H   H278      1.0  0.34264064824361234  0.12846889344000176  0.4629444515918482  1.0000
  H   H279      1.0  0.3592214811490889  0.10270861352662741  0.4059462219941326  1.0000
  H   H280      1.0  0.31373820990908335  0.08820547628105971  0.39486506004985167  1.0000
  C   C441      1.0  0.2722682005613358  0.49214888046009764  0.68275499350011  1.0000
  C   C442      1.0  0.24994202926993023  0.4780554162788823  0.6955264762545  1.0000
  C   C443      1.0  0.2251334578551433  0.4759589195750079  0.6898726973276554  1.0000
  C   C444      1.0  0.2223500054646711  0.4869265335583338  0.6718237423607076  1.0000
  C   C445      1.0  0.24378759176408113  0.4964348821047244  0.6579386364843632  1.0000
  C   C446      1.0  0.26858979070970945  0.49991404139943263  0.6638386974477942  1.0000
  H   H281      1.0  0.2515742894107737  0.47027794071873075  0.7102253836430417  1.0000
  H   H282      1.0  0.2073967010795216  0.4649438747837052  0.6992818948869144  1.0000
  H   H283      1.0  0.24099102118697194  0.002418086075883532  0.6428068234041828  1.0000
  H   H284      1.0  0.28493908689189384  0.009236012531839873  0.6530374709860921  1.0000
  C   C447      1.0  0.2221086081072816  0.03935604035337678  0.6557618704094444  1.0000
  C   C448      1.0  0.19932493711476695  0.01272692440697469  0.6532133867265106  1.0000
  C   C449      1.0  0.1788121652485333  0.00966210267381778  0.6397963696898893  1.0000
  C   C450      1.0  0.1810133249311851  0.03126427494220188  0.6282807723518786  1.0000
  C   C451      1.0  0.20433152946165817  0.05687605579800043  0.6301363009877721  1.0000
  C   C452      1.0  0.22391795540567935  0.060787352484329954  0.6442432136672529  1.0000
  C   C453      1.0  0.19492618232058087  0.4871612864683246  0.6669348144791611  1.0000
  C   C454      1.0  0.18017684409631382  0.49206810551870545  0.6862503627771229  1.0000
  C   C455      1.0  0.15257557162380989  0.4844045522850936  0.6851719228032526  1.0000
  C   C456      1.0  0.14149129550278094  0.49159069703347763  0.7009752751012047  1.0000
  C   C457      1.0  0.1569555814977099  0.005976750420796735  0.7177484585245952  1.0000
  C   C458      1.0  0.18419479440332157  0.013522180763541702  0.718568378845155  1.0000
  C   C459      1.0  0.19573763923664542  0.008217651760638519  0.7027436107179343  1.0000
  C   C460      1.0  0.18528133464868995  0.4560577299558939  0.6353938870731523  1.0000
  C   C461      1.0  0.17238660273908785  0.43132097126085733  0.6252305463832293  1.0000
  C   C462      1.0  0.1529428709807829  0.40801967786875626  0.6354168326045112  1.0000
  C   C463      1.0  0.14772658671402275  0.41055373659637595  0.6559943851272151  1.0000
  C   C464      1.0  0.16176622347578218  0.43517078942046244  0.6658150725488445  1.0000
  C   C465      1.0  0.17966517831089798  0.4584596997643483  0.6555936031794788  1.0000
  C   C466      1.0  0.134560315766372  0.38110552982676515  0.6224510776846155  1.0000
  C   C467      1.0  0.07975093974086091  0.4094360560724203  0.597243116933676  1.0000
  C   C468      1.0  0.10300631044410002  0.4142074857557675  0.5867570091026371  1.0000
  C   C469      1.0  0.11923705768936274  0.40368937936264865  0.5937936387193808  1.0000
  C   C470      1.0  0.11332234937789724  0.3890670480232194  0.6119879153849355  1.0000
  C   C471      1.0  0.09040073647567713  0.3851553510564137  0.6224740232159744  1.0000
  C   C472      1.0  0.07447211850698887  0.39575989552129925  0.6154817549598578  1.0000
  C   C473      1.0  0.11981604035877744  0.35273484539790007  0.6348126002787255  1.0000
  C   C474      1.0  0.13430983286611423  0.347495786291772  0.6498052104686617  1.0000
  C   C475      1.0  0.12430294149928953  0.32175525332521004  0.6583654233676397  1.0000
  C   C476      1.0  0.0995339120104316  0.3004699373979476  0.6517586400383535  1.0000
  C   C477      1.0  0.08484520156288207  0.30507524017260435  0.6365426933431902  1.0000
  C   C478      1.0  0.09480659000605349  0.3307541656661093  0.6280620249529233  1.0000
  C   C479      1.0  0.13573721064531635  0.35507324044596716  0.5902921506340055  1.0000
  C   C480      1.0  0.14637624009492864  0.3413791027927895  0.5799513645015734  1.0000
  C   C481      1.0  0.17245683713270463  0.34676037169367846  0.5839805998082044  1.0000
  C   C482      1.0  0.18872816782930948  0.3674324692687194  0.5971681615312368  1.0000
  C   C483      1.0  0.17783482608986473  0.3800191560348792  0.6084650114702921  1.0000
  C   C484      1.0  0.150503941313697  0.373195885619364  0.6059761861688914  1.0000
  H   H285      1.0  0.23712357241586218  0.043518963507659505  0.6677180219495465  1.0000
  H   H286      1.0  0.15951504561071428  0.4906139027707395  0.6390284592404095  1.0000
  H   H287      1.0  0.16411042642116266  0.027120452438966214  0.618521273013873  1.0000
  H   H288      1.0  0.24220236098140208  0.08035196211337857  0.6462348857892096  1.0000
  H   H289      1.0  0.14038332904442644  0.4737140147997048  0.6720027175053076  1.0000
  H   H290      1.0  0.11998588355816636  0.48685960228968905  0.6999213103607838  1.0000
  H   H291      1.0  0.19717363251646594  0.024083076825015502  0.7312572576866527  1.0000
  H   H292      1.0  0.21806312293152405  0.016334167369207737  0.7031030907092245  1.0000
  H   H293      1.0  0.1999081501544513  0.47385997604609853  0.6275572232630264  1.0000
  H   H294      1.0  0.17572984652669812  0.4301975202738774  0.609491441573082  1.0000
  H   H295      1.0  0.13205314773093446  0.3937538300771755  0.6644031575192241  1.0000
  H   H296      1.0  0.15714115940464835  0.4367837403934384  0.6815434694443576  1.0000
  H   H297      1.0  0.10846174496517642  0.4253606315321714  0.572472650980647  1.0000
  H   H298      1.0  0.13749771729915214  0.40765038729605974  0.5849718467629114  1.0000
  H   H299      1.0  0.08562677853676687  0.37496915945856174  0.6369817178431918  1.0000
  H   H300      1.0  0.057417742944831957  0.39276777322455975  0.6244228636793944  1.0000
  H   H301      1.0  0.15416536409471862  0.363580488587737  0.6555140586707678  1.0000
  H   H302      1.0  0.13594405523718328  0.31824589761444394  0.6699054959390999  1.0000
  H   H303      1.0  0.06595040811427097  0.2886776332024791  0.6306059195295852  1.0000
  H   H304      1.0  0.08310132917491339  0.33282689412591415  0.6156943835504507  1.0000
  H   H305      1.0  0.11402786188814103  0.34895758419279205  0.5878721619266819  1.0000
  H   H306      1.0  0.1332791205241678  0.32507882985554226  0.5694453705433566  1.0000
  H   H307      1.0  0.20988252945679706  0.37292170424779797  0.6003315854545902  1.0000
  H   H308      1.0  0.1905975003873363  0.39418203600913787  0.620344677905864  1.0000
  C   C485      1.0  0.2852401300981239  0.2181878491894187  0.5111606614874494  1.0000
  C   C486      1.0  0.2627002468302359  0.206535348310145  0.4984962578794011  1.0000
  C   C487      1.0  0.23741270511465254  0.18713432831310264  0.5061279416093873  1.0000
  C   C488      1.0  0.23510410189238112  0.1778501127217037  0.5263353062261669  1.0000
  C   C489      1.0  0.25747517060647646  0.1929637760861719  0.5390150068551208  1.0000
  C   C490      1.0  0.2819401895421465  0.212864762402684  0.5315240557174697  1.0000
  H   H309      1.0  0.26498232468553373  0.21082680283444036  0.4822691781023536  1.0000
  H   H310      1.0  0.21924944006963806  0.17792780530475955  0.49607320976789626  1.0000
  H   H311      1.0  0.2560869503415906  0.18829402724109023  0.5548566017053379  1.0000
  H   H312      1.0  0.29892846661447303  0.22259197649313744  0.5423619950293459  1.0000
  C   C491      1.0  0.23334195769557978  0.13029904267123418  0.552597231717527  1.0000
  C   C492      1.0  0.21082633257559227  0.13376284844182784  0.5510507029039342  1.0000
  C   C493      1.0  0.18849202010950653  0.11759216102305278  0.5632577255868938  1.0000
  C   C494      1.0  0.18884565586602836  0.09976937416010208  0.5774334748604515  1.0000
  C   C495      1.0  0.21253465925700565  0.09829003583087709  0.5800783297750928  1.0000
  C   C496      1.0  0.23442915709082104  0.11366511259512589  0.5674888815694837  1.0000
  C   C497      1.0  0.20734715198762385  0.15074570346837698  0.5331654260606798  1.0000
  C   C498      1.0  0.19391106178828899  0.12646184215162512  0.5166813563324122  1.0000
  C   C499      1.0  0.1657804048207223  0.1083151796546773  0.5141818231163774  1.0000
  C   C500      1.0  0.1558236643713739  0.08667242055771779  0.5004252122156433  1.0000
  C   C501      1.0  0.1738613624483237  0.08152864406787763  0.4896836441354747  1.0000
  C   C502      1.0  0.2017878274994585  0.09886162979267182  0.49234073666684086  1.0000
  C   C503      1.0  0.21161502246656727  0.12084207259846934  0.5055527736233227  1.0000
  C   C504      1.0  0.19573249703644133  0.17832342101632745  0.5577844515067396  1.0000
  C   C505      1.0  0.18176824251424745  0.19046017773001697  0.5645487941513573  1.0000
  C   C506      1.0  0.16018885624645704  0.18897648172682843  0.5529918948569009  1.0000
  C   C507      1.0  0.15520055345158362  0.17711879591045052  0.5335662080084161  1.0000
  C   C508      1.0  0.169994744864631  0.16497915195380347  0.527136870121639  1.0000
  C   C509      1.0  0.1895704659012591  0.16418219424804548  0.5394647392697561  1.0000
  C   C510      1.0  0.13941752633331456  0.19657653041306591  0.5636202649823653  1.0000
  C   C511      1.0  0.09888321167604303  0.1267713934627195  0.6052908796323041  1.0000
  C   C512      1.0  0.1160557755813678  0.15232082607207817  0.6130984791027085  1.0000
  C   C513      1.0  0.1306239558346315  0.17497193629154484  0.6004922041741032  1.0000
  C   C514      1.0  0.1261772988123221  0.17208692916041743  0.5795215182141157  1.0000
  C   C515      1.0  0.10867209049319997  0.145942627277723  0.572185066987615  1.0000
  C   C516      1.0  0.09558590601490585  0.1234690345986281  0.5846353123029797  1.0000
  C   C517      1.0  0.11808217957308219  0.19949605021133313  0.5490467931652525  1.0000
  C   C518      1.0  0.12747214728037812  0.21656957220001735  0.5319844960467394  1.0000
  C   C519      1.0  0.11076129247941663  0.22441904209429286  0.5224131500658771  1.0000
  C   C520      1.0  0.08423357541968908  0.21463252718921383  0.5289342700780899  1.0000
  C   C521      1.0  0.07382587456745517  0.19563772284926217  0.5444209740432888  1.0000
  C   C522      1.0  0.09046782310385278  0.18797296180479622  0.5546837453691009  1.0000
  C   C523      1.0  0.14223460997342108  0.2348516932045689  0.5878507460974135  1.0000
  C   C524      1.0  0.1534329911152466  0.26154633589065307  0.5944605888308809  1.0000
  C   C525      1.0  0.17782865329617562  0.28180397913508726  0.5862965687733676  1.0000
  C   C526      1.0  0.1908952079948812  0.27447058989249573  0.5718255869963248  1.0000
  C   C527      1.0  0.17991287894412833  0.2475749175241537  0.5656593578691304  1.0000
  C   C528      1.0  0.1552454515194418  0.22698567985059473  0.573447071212357  1.0000
  H   H313      1.0  0.2506977508655503  0.14095635061995748  0.5421111238864881  1.0000
  H   H314      1.0  0.1692884055246752  0.11786514330046428  0.5615903503081437  1.0000
  H   H315      1.0  0.1710943764276251  0.08723278779687715  0.586723355656644  1.0000
  H   H316      1.0  0.2532450228172276  0.11270225235212421  0.569127192508513  1.0000
  H   H317      1.0  0.15137795298121484  0.11070139900644665  0.5236980998219782  1.0000
  H   H318      1.0  0.13375653133644672  0.07240419146067527  0.49977814823132094  1.0000
  H   H319      1.0  0.216512508865579  0.09559404202325278  0.4851817308828493  1.0000
  H   H320      1.0  0.2339256434382933  0.13294877736875527  0.5073471141755924  1.0000
  H   H321      1.0  0.21189123574252153  0.17993046434791535  0.5679263763673944  1.0000
  H   H322      1.0  0.1869556869926536  0.2001358185185081  0.5793563103883314  1.0000
  H   H323      1.0  0.13852120525194123  0.17503884241638287  0.5242304361495057  1.0000
  H   H324      1.0  0.16661230878753877  0.15654901451100206  0.5119209234264759  1.0000
  H   H325      1.0  0.11800371723934483  0.15508071797169856  0.6295779597247044  1.0000
  H   H326      1.0  0.14519538758513942  0.194763725928648  0.6071861805225535  1.0000
  H   H327      1.0  0.10489378169140638  0.14277783710810094  0.5557728932576053  1.0000
  H   H328      1.0  0.08224277370906721  0.10365811582365861  0.5781111328865858  1.0000
  H   H329      1.0  0.14813504564721877  0.22573046565926405  0.5268707019578753  1.0000
  H   H330      1.0  0.11807864137768108  0.2393508849100722  0.5101663551285618  1.0000
  H   H331      1.0  0.05298732542678094  0.18828992389618526  0.5490605604840679  1.0000
  H   H332      1.0  0.08162576090466825  0.17397983412480947  0.5674445202088568  1.0000
  H   H333      1.0  0.12248484940774355  0.21990979901515847  0.5934616933657215  1.0000
  H   H334      1.0  0.14210067318944278  0.2671125485412505  0.6051807410817811  1.0000
  H   H335      1.0  0.20883495468177068  0.2895022599126489  0.5639078489753974  1.0000
  H   H336      1.0  0.1900456471371301  0.24335597117803429  0.5532963055729295  1.0000
  C   C529      1.0  0.2069034617816327  0.08073840266231269  0.6168477789267605  1.0000
  C   C530      1.0  0.2123815612213608  0.07640392488514303  0.594290791898825  1.0000
  H   H337      1.0  0.1869704020120941  0.08026231852840383  0.6170680560278065  1.0000
  H   H338      1.0  0.223434702188518  0.10183869129791435  0.6221573748832212  1.0000
  H   H339      1.0  0.19616828277431633  0.05624659029550734  0.5887456218204125  1.0000
  H   H340      1.0  0.23252870652498706  0.07739210632787868  0.5928421640190299  1.0000
  C   C531      1.0  0.1883862403984125  0.3122791601666416  0.5913507044806983  1.0000
  C   C532      1.0  0.18263499243902562  0.328678799095269  0.5750731445346612  1.0000
  H   H341      1.0  0.17993908886723278  0.31426939150724714  0.6061107999528639  1.0000
  H   H342      1.0  0.21070763863564906  0.3215303376496784  0.5945952026148534  1.0000
  H   H343      1.0  0.16833977474567174  0.3151900682914842  0.5628003446618055  1.0000
  H   H344      1.0  0.20208352551396325  0.3423972208306567  0.566304892151362  1.0000
  C   C533      1.0  0.17687841597340714  0.04114487298029707  0.4726228767190522  1.0000
  C   C534      1.0  0.15973942733628493  0.05515980580843723  0.4765955130483312  1.0000
  H   H345      1.0  0.18502666459309197  0.03953628372461002  0.48800097183581864  1.0000
  H   H346      1.0  0.16215171295818084  0.019528984778938583  0.46822957231485907  1.0000
  H   H347      1.0  0.1400763692283195  0.03965920729426242  0.4836734446215212  1.0000
  H   H348      1.0  0.15277139220842034  0.05978423545654539  0.46240293705177726  1.0000
  C   C535      1.0  0.03256918233691038  0.39348421548471546  0.5788958700590617  1.0000
  C   C536      1.0  0.06050244276104025  0.41822250764224495  0.5869176278221496  1.0000
  H   H349      1.0  0.02062711580394928  0.40328453617400034  0.5735908632088732  1.0000
  H   H350      1.0  0.020443295775397614  0.3806431010261126  0.5920084763796547  1.0000
  H   H351      1.0  0.07105575942592192  0.43318490540004667  0.5744245508482482  1.0000
  H   H352      1.0  0.054978237472578316  0.429303696425397  0.598266487632285  1.0000
  C   C537      1.0  0.11351848246120981  0.4173982140540318  0.4558558121040241  1.0000
  C   C538      1.0  0.13093399220780952  0.44680142903323977  0.46400453514063156  1.0000
  H   H353      1.0  0.12696572744351503  0.4096543094393126  0.4506181121458217  1.0000
  H   H354      1.0  0.10173741044020797  0.41694711523714867  0.4416464093844735  1.0000
  H   H355      1.0  0.11746697283200894  0.4560240310239359  0.465723920290462  1.0000
  H   H356      1.0  0.14126816813115306  0.4476562034574673  0.47866825938108964  1.0000
  C   C539      1.0  0.40636782098935353  0.15163049696032352  0.42951128269977146  1.0000
  C   C540      1.0  0.3835440575043446  0.12594308988504407  0.4411951472677474  1.0000
  H   H357      1.0  0.40245288888462205  0.149751424903753  0.4129507278669739  1.0000
  H   H358      1.0  0.42551059638805344  0.15114235593764935  0.430820707689322  1.0000
  H   H359      1.0  0.3863014469031745  0.12834516231870094  0.4578949049907894  1.0000
  H   H360      1.0  0.3866541576405102  0.10840533956637444  0.43690586260571485  1.0000
  C   C541      1.0  0.07341386105767703  0.25223674544575164  0.5359020631007569  1.0000
  C   C542      1.0  0.06787678089816084  0.22833802766750116  0.5213913090693587  1.0000
  H   H361      1.0  0.0656536572231536  0.24400154854201211  0.5513811185555028  1.0000
  H   H362      1.0  0.09570720409860523  0.26619648965551596  0.5379411559875225  1.0000
  H   H363      1.0  0.07329263133222659  0.23495171961344027  0.5052774272470153  1.0000
  H   H364      1.0  0.04575624058188601  0.21322649388397483  0.521063952821971  1.0000
  C   C543      1.0  0.31446169788095457  0.23551195367706146  0.5025193743776698  1.0000
  C   C544      1.0  0.3231966910745141  0.21512100026066305  0.4956341852678951  1.0000
  H   H365      1.0  0.3292444093753478  0.2504165413176028  0.5137443283184668  1.0000
  H   H366      1.0  0.31455180411867106  0.24854409037209316  0.4891926097643935  1.0000
  H   H367      1.0  0.30851248016088406  0.20122577034145353  0.48397785533755006  1.0000
  H   H368      1.0  0.321748008084815  0.2009598416687424  0.5080599553498103  1.0000
  C   C545      1.0  0.053295802164308764  0.09672302320388161  0.6231379139232932  1.0000
  C   C546      1.0  0.0825414418138493  0.10186690872268223  0.6189465301950589  1.0000
  H   H369      1.0  0.04058140828342809  0.07382932403873936  0.6242270618117979  1.0000
  H   H370      1.0  0.045305721011443395  0.10196545197710861  0.6094057782560086  1.0000
  H   H371      1.0  0.08191590671430066  0.08364918847982356  0.6117554006671647  1.0000
  H   H372      1.0  0.09294194993892764  0.10359282101176154  0.6338580661741934  1.0000
  C   C547      1.0  0.06214838606967145  0.25963400727523517  0.6733855681952066  1.0000
  C   C548      1.0  0.08794715420207802  0.27080054233541234  0.659971610562766  1.0000
  H   H373      1.0  0.045009244459528336  0.25942470294757847  0.6652536718815957  1.0000
  H   H374      1.0  0.06462131454021433  0.27218651753036727  0.6870442781621426  1.0000
  H   H375      1.0  0.08309174774489747  0.2571007763220461  0.6466662617787577  1.0000
  H   H376      1.0  0.10433863264684892  0.2696424844539364  0.6684308631237645  1.0000
  C   C549      1.0  0.31525779793688874  0.02995226380742472  0.699306370120364  1.0000
  C   C550      1.0  0.30206094625626323  0.0016987962112942991  0.6891797422806152  1.0000
  H   H377      1.0  0.30501912803339876  0.02808097627186995  0.7137911192162222  1.0000
  H   H378      1.0  0.31043514106939385  0.04405832017156688  0.6901403951935099  1.0000
  H   H379      1.0  0.3147119961426362  0.002721426169662366  0.6758468588589763  1.0000
  H   H380      1.0  0.30222245532810826  0.4863409830737004  0.699662790707473  1.0000
  C   C551      1.0  0.14525627322069887  0.014931133062293836  0.7349392506187186  1.0000
  C   C552      1.0  0.15712138695069675  0.04594064742466355  0.7375718679166351  1.0000
  H   H381      1.0  0.12337759348629046  0.007096581763677914  0.7320878859218466  1.0000
  H   H382      1.0  0.14627623997053416  0.005599054154629504  0.749732999536877  1.0000
  H   H383      1.0  0.161391481426414  0.05628480466621098  0.72255631219534  1.0000
  H   H384      1.0  0.1414667138078661  0.05005235890545538  0.7444081065595107  1.0000
  C   C553      1.0  0.11232257097541908  0.13511110100552678  0.7516772508940253  1.0000
  C   C554      1.0  0.10324853073924728  0.12507135380474318  0.7735275155561054  1.0000
  H   H385      1.0  0.11645940306031956  0.12010960880857889  0.7436707901518432  1.0000
  H   H386      1.0  0.1315996656911724  0.15439567315364747  0.7523824435577905  1.0000
  H   H387      1.0  0.09113918668844868  0.1341470719078802  0.7789778441049007  1.0000
  H   H388      1.0  0.08885011122212097  0.1028601714009952  0.7731450900334563  1.0000
  C   C555      1.0  0.3876546993153035  0.16469458098208373  0.7696328940334468  1.0000
  C   C556      1.0  0.36609253822868937  0.16745992095827741  0.7566610203051886  1.0000
  H   H389      1.0  0.3800286557400769  0.15859343156475808  0.7855708601153716  1.0000
  H   H390      1.0  0.40631441898340065  0.18521336439986993  0.7716536304951247  1.0000
  H   H391      1.0  0.36732549318506047  0.16284265230451445  0.740433940528141  1.0000
  H   H392      1.0  0.37233051846883897  0.18939656055094578  0.7562204661030968  1.0000
  C   C557      1.0  0.37849212877746313  0.3954647414652275  0.09392355539241508  1.0000
  C   C558      1.0  0.39030515874101734  0.4257738856407379  0.08749375859501088  1.0000
  H   H393      1.0  0.3574884594926352  0.38784744829303064  0.0998820509757065  1.0000
  H   H394      1.0  0.39053382181189694  0.39452996770993304  0.10675362573687497  1.0000
  H   H395      1.0  0.4121751607112485  0.4334343325337866  0.08321043977113166  1.0000
  H   H396      1.0  0.3807257173206615  0.42748407502691904  0.07296541298957077  1.0000
  C   C559      1.0  0.3489525863500243  0.14634682197102844  0.10000228556002742  1.0000
  C   C560      1.0  0.35130527823596236  0.12351880858632555  0.08954432424745547  1.0000
  H   H397      1.0  0.3477018083807052  0.14322161351787868  0.11678602392784294  1.0000
  H   H398      1.0  0.32890143478512873  0.14395144884059224  0.0950091849661114  1.0000
  H   H399      1.0  0.3550756298167592  0.12737478429709398  0.0732681410332998  1.0000
  H   H400      1.0  0.33126195904905215  0.10501620539952473  0.09070246170024607  1.0000
  C   C561      1.0  0.02567910861650702  0.36050452054179216  0.13220572694147364  1.0000
  C   C562      1.0  0.49460883667054967  0.3507319536282658  0.13323215704426397  1.0000
  H   H401      1.0  0.03797476607212957  0.3830631583677742  0.13213061856882538  1.0000
  H   H402      1.0  0.028731203390743042  0.35364350348243717  0.11716493113568374  1.0000
  H   H403      1.0  0.4920484248242672  0.36868968742757857  0.1298304055351954  1.0000
  H   H404      1.0  0.48781180002637203  0.34574738945325095  0.14947927591869817  1.0000
  C   C563      1.0  0.014038416335706313  0.19573329211376136  0.18840881739249718  1.0000
  C   C564      1.0  0.4867809062918224  0.18864981661609445  0.17668212116598453  1.0000
  H   H405      1.0  0.028377813174963486  0.1933288375170086  0.1780970955997863  1.0000
  H   H406      1.0  0.009066711454553737  0.18115108918888814  0.20081623104932528  1.0000
  H   H407      1.0  0.4902233623708937  0.20548865050518528  0.16592831546909123  1.0000
  H   H408      1.0  0.4719885359201587  0.18786173000273695  0.18800803544476088  1.0000
  C   C565      1.0  0.2516705607592704  0.40644883889197575  0.21076847285074599  1.0000
  C   C566      1.0  0.2520570387522044  0.41512238941569357  0.18867651525835155  1.0000
  H   H409      1.0  0.2666795863679432  0.4239796597153299  0.22006141305111962  1.0000
  H   H410      1.0  0.25774232172439215  0.3904836965737695  0.21211002158419917  1.0000
  H   H411      1.0  0.23889234794540545  0.39744615120583565  0.17818581832104088  1.0000
  H   H412      1.0  0.24399221461058618  0.4296746439960825  0.18743286745869664  1.0000
  C   C567      1.0  0.11140485351240363  0.43131388540015525  0.32400161070296957  1.0000
  C   C568      1.0  0.1175225319597875  0.4332069762613756  0.30081132700952684  1.0000
  H   H413      1.0  0.10120146502483847  0.443969775002285  0.32615849065071056  1.0000
  H   H414      1.0  0.09528824303432332  0.40993859975739655  0.32807673707231855  1.0000
  H   H415      1.0  0.1323022013407511  0.45450991718803035  0.29643943843460213  1.0000
  H   H416      1.0  0.09847034963454317  0.4296826360519833  0.293084801749924  1.0000
  C   C569      1.0  0.45877140586565546  0.365323030588626  0.3946860849052519  1.0000
  C   C570      1.0  0.47767911081997877  0.3533579762019312  0.4008645516491711  1.0000
  H   H417      1.0  0.4474202517350805  0.3660778412810657  0.408321849340829  1.0000
  H   H418      1.0  0.4717770584541374  0.3879147172415  0.3913130917954868  1.0000
  H   H419      1.0  0.4964924284268281  0.36995509413519956  0.40851153240006294  1.0000
  H   H420      1.0  0.48368302577248595  0.34729440703654435  0.38704828236690364  1.0000
  C   C571      1.0  0.3889705286045725  0.4413217541299022  0.2417174055476941  1.0000
  C   C572      1.0  0.3681547037541778  0.44314290589801203  0.2561256695390224  1.0000
  H   H421      1.0  0.41050868714769984  0.45333723215475347  0.24837007993969817  1.0000
  H   H422      1.0  0.38438272347560265  0.41996181533228055  0.23975173836127767  1.0000
  H   H423      1.0  0.3518782192824607  0.44379462256514507  0.2473558874536327  1.0000
  H   H424      1.0  0.37804383884045717  0.46332130169986957  0.26412907087702314  1.0000
  C   C573      1.0  0.454421755769763  0.32442021030609325  0.2651876247237159  1.0000
  C   C574      1.0  0.44684376791359054  0.30763968592262003  0.24529690843968982  1.0000
  H   H425      1.0  0.4658634911845706  0.3465822867668917  0.2620272602045436  1.0000
  H   H426      1.0  0.46952880190176427  0.32058060565062396  0.27405377804081316  1.0000
  H   H427      1.0  0.4340566251423758  0.28602944671809266  0.2489727825633932  1.0000
  H   H428      1.0  0.43388462211133  0.31211347822895424  0.2353048943839136  1.0000
  C   C575      1.0  0.18677351100270034  0.27695516113513885  0.2901232985025292  1.0000
  C   C576      1.0  0.16485513424741935  0.28127163486980816  0.3014920444398423  1.0000
  H   H429      1.0  0.18384268730578776  0.2777394904892767  0.2736300505617181  1.0000
  H   H430      1.0  0.18184968072181226  0.2556341534368293  0.29315669774818204  1.0000
  H   H431      1.0  0.14565703856058526  0.2612641482843427  0.30389520642416934  1.0000
  H   H432      1.0  0.17119335907353014  0.2888102778480782  0.3173183422691535  1.0000
  C   C577      1.0  0.2934144750380128  0.198323215608253  0.3576183438459179  1.0000
  C   C578      1.0  0.3102904882118944  0.19315115501989077  0.37410394327627616  1.0000
  H   H433      1.0  0.28746155598132056  0.18297452677025614  0.3453333063563375  1.0000
  H   H434      1.0  0.2740975708181175  0.1961816871334814  0.36375397893130035  1.0000
  H   H435      1.0  0.3171452590879082  0.20913157696882692  0.3862987283425114  1.0000
  H   H436      1.0  0.3298934478481088  0.19690161120559047  0.36738243229019524  1.0000
  C   C579      1.0  0.25855533132730063  0.39905790709831523  0.3790081681787285  1.0000
  C   C580      1.0  0.23000589787200074  0.3924984443960872  0.3701389554574501  1.0000
  H   H437      1.0  0.25612192685134644  0.39002677994709506  0.3945224067815581  1.0000
  H   H438      1.0  0.2717409644864184  0.4214740929084313  0.38190389423622767  1.0000
  H   H439      1.0  0.22998094163106084  0.3919392764485337  0.35329540573789225  1.0000
  H   H440      1.0  0.21373561933005109  0.3713614555272569  0.37397391859857554  1.0000
  C   C581      1.0  0.44789389022104886  0.006894951391733372  0.7963093687913588  1.0000
  C   C582      1.0  0.46953516646359794  0.03559379819968699  0.7884237545143342  1.0000
  H   H441      1.0  0.45807898714212386  0.4948526936790071  0.7998995795979889  1.0000
  H   H442      1.0  0.4347889373561358  0.4952174922300487  0.7835516533557841  1.0000
  H   H443      1.0  0.4817942110140713  0.0478953311925798  0.8018698358906772  1.0000
  H   H444      1.0  0.48444758084839723  0.032898062307870596  0.7791017499742391  1.0000
  C   C583      1.0  0.30138896576100965  0.04181993226828747  0.8291092410179286  1.0000
  C   C584      1.0  0.2839122911621097  0.013180768513545398  0.8378958498263149  1.0000
  H   H445      1.0  0.31414870125422345  0.04141515988387312  0.8164769611537829  1.0000
  H   H446      1.0  0.3165007669592732  0.05529874558352483  0.8411740014064634  1.0000
  H   H447      1.0  0.270821282984946  0.01410602333365815  0.8500967537009124  1.0000
  H   H448      1.0  0.2699307409966908  0.4983200374437245  0.8256857677391737  1.0000
  C   C585      1.0  0.2557111022974207  0.28171135311075923  0.8593912236033767  1.0000
  C   C586      1.0  0.2719073799215777  0.2720471177786961  0.8461975430719822  1.0000
  H   H449      1.0  0.2398529133593387  0.2820368016208704  0.8495445312462071  1.0000
  H   H450      1.0  0.24430300113439227  0.2666295535641815  0.871794048153933  1.0000
  H   H451      1.0  0.28978811531963083  0.2742028333016193  0.8549107261800198  1.0000
  H   H452      1.0  0.2810868197763884  0.2853469008429325  0.8330910555597513  1.0000
  C   C587      1.0  0.4143240730643537  0.372304872790029  0.9590130722534727  1.0000
  C   C588      1.0  0.4118438536810064  0.3980507981471463  0.9549287676715801  1.0000
  H   H453      1.0  0.4362983125425006  0.3788604619719826  0.9578382610478946  1.0000
  H   H454      1.0  0.40331006797525604  0.35672457870969737  0.9468886534834049  1.0000
  H   H455      1.0  0.4302637407062553  0.41277869002212414  0.9458224511262592  1.0000
  H   H456      1.0  0.4133700640438305  0.40888914336480314  0.9695726057848603  1.0000
  C   C589      1.0  0.48855031866168525  0.05728997580346216  0.07383657833016546  1.0000
  C   C590      1.0  0.01698956081236401  0.08130192596965909  0.06743967012770909  1.0000
  H   H457      1.0  0.4921927652257943  0.04136818625972229  0.08077438919185675  1.0000
  H   H458      1.0  0.4764335323802402  0.04704529890517513  0.060114844637096876  1.0000
  H   H459      1.0  0.027578103560240576  0.095087526666925  0.08062998531450444  1.0000
  H   H460      1.0  0.029491507883205082  0.07149951348978996  0.06435028378554042  1.0000
  C   C591      1.0  0.11795948698940138  0.11832954498319469  0.9134310093578787  1.0000
  C   C592      1.0  0.1434312529876186  0.11495216384325894  0.9105719961505538  1.0000
  H   H461      1.0  0.1015576112506213  0.09903951798569066  0.9203192578718347  1.0000
  H   H462      1.0  0.10946918022735795  0.12024026550336872  0.898898839497212  1.0000
  H   H463      1.0  0.13716711100912146  0.09290084041840294  0.9131311877481217  1.0000
  H   H464      1.0  0.158682769853194  0.12528852585487465  0.9232302809502397  1.0000
  C   C593      1.0  0.4543702845240558  0.08638533389185228  0.9180415314589365  1.0000
  C   C594      1.0  0.44768173675608397  0.08079673441840635  0.9411507409415776  1.0000
  H   H465      1.0  0.45676866444240016  0.1066999651386147  0.9143289444850589  1.0000
  H   H466      1.0  0.4743910710902912  0.08820910900755442  0.9149943648944685  1.0000
  H   H467      1.0  0.4421822902798848  0.05961180533343678  0.944800610129741  1.0000
  H   H468      1.0  0.4285549040745615  0.08136925178569099  0.9434667099067406  1.0000
  C   C595      1.0  0.18724117415382682  0.3285448403994382  0.9299502622342302  1.0000
  C   C596      1.0  0.21141147521943734  0.3524132761393281  0.9415193991454113  1.0000
  H   H469      1.0  0.1935141293802904  0.32813914555395296  0.9141622069571839  1.0000
  H   H470      1.0  0.1702566468572602  0.33293645892938395  0.9285750600547839  1.0000
  H   H471      1.0  0.21338217574993434  0.34919561577068564  0.9578765036001595  1.0000
  H   H472      1.0  0.2081124105510745  0.37065060390665494  0.9414260873178849  1.0000
  C   C597      1.0  0.024781106385863134  0.26956981651817147  0.03449080491751517  1.0000
  C   C598      1.0  0.021380654272291046  0.25638707204365724  0.013288996268659745  1.0000
  H   H473      1.0  0.036590379689145434  0.26440216496904834  0.04558787576353832  1.0000
  H   H474      1.0  0.03869222244804067  0.29193495024430677  0.03256980503214411  1.0000
  H   H475      1.0  0.037567671687090555  0.27116783692345886  0.0024000126490608684  1.0000
  H   H476      1.0  0.0018571392647651385  0.25387948479654876  0.006573039952208148  1.0000
  C   C599      1.0  0.245467218841905  0.25580478848563143  0.013109944638955425  1.0000
  C   C600      1.0  0.25133545731068335  0.23403946092205408  0.022925645231769508  1.0000
  H   H477      1.0  0.24671276127886704  0.27025166075365303  0.02512000288073017  1.0000
  H   H478      1.0  0.26169654639089934  0.26926480049100737  0.0019701663616031873  1.0000
  H   H479      1.0  0.2447539823534477  0.216285520504886  0.012812876492961587  1.0000
  H   H480      1.0  0.23870420264640735  0.2256688218265  0.036950718849403374  1.0000
  C   C601      1.0  0.022794487020992595  0.729948159706325  0.012373530755521372  1.0000
  C   C602      1.0  0.0340397910975045  0.7205646509577458  0.02732935161017867  1.0000
  C   C603      1.0  0.03369505667352602  0.6960673931142404  0.024071239127417227  1.0000
  C   C604      1.0  0.02427272151939958  0.6815979181701766  0.005846431459174628  1.0000
  C   C605      1.0  0.015057986845420035  0.6924775432655403  0.9905631778720253  1.0000
  C   C606      1.0  0.013549561004067349  0.715904658080072  0.9941610371891081  1.0000
  H   H481      1.0  0.043846671614103556  0.731330089368007  0.04120986838025117  1.0000
  H   H482      1.0  0.04382275851843419  0.689452877003012  0.03557444587849372  1.0000
  H   H483      1.0  0.008419957670771883  0.6822039823243751  0.9760845475845294  1.0000
  H   H484      1.0  0.004783655180879173  0.7229579600654774  0.9827203952535369  1.0000
  C   C607      1.0  0.47966710186828837  0.626915688586745  0.9867771651977989  1.0000
  C   C608      1.0  0.007363289355554167  0.6348843299102988  0.9852994729782826  1.0000
  C   C609      1.0  0.01508958327546061  0.6235275258486819  0.9696766255270207  1.0000
  C   C610      1.0  0.4963581016028799  0.6051736432122102  0.9559949700287258  1.0000
  C   C611      1.0  0.4693572376140646  0.5993916516816856  0.9566940438841285  1.0000
  C   C612      1.0  0.4613413322719557  0.6106359522771152  0.9719772974712779  1.0000
  C   C613      1.0  0.029775329329895524  0.6575641150816826  0.0005919047779756603  1.0000
  C   C614      1.0  0.02553044236697407  0.6365703184043071  0.018375852303708386  1.0000
  C   C615      1.0  0.03795748044557206  0.6204131287151559  0.01720272377042994  1.0000
  C   C616      1.0  0.03447427764165481  0.6018850852013798  0.032242142844338344  1.0000
  C   C617      1.0  0.018751551987208893  0.5994881720261861  0.04901807973149186  1.0000
  C   C618      1.0  0.00474909368373766  0.6139200776039963  0.049970931163724405  1.0000
  C   C619      1.0  0.007203260054994753  0.6313570010376579  0.03424865307657375  1.0000
  C   C620      1.0  0.06557978347467519  0.6862819358584576  0.9723138319312091  1.0000
  C   C621      1.0  0.09211050828449871  0.7005802244915564  0.9646209601175993  1.0000
  C   C622      1.0  0.11459105991203447  0.7034981135913001  0.9754971419817404  1.0000
  C   C623      1.0  0.11033061738129073  0.6933527867397118  0.9954138632013066  1.0000
  C   C624      1.0  0.08411767121516259  0.6804768289345527  0.00350598726056206  1.0000
  C   C625      1.0  0.06092028361609844  0.6750377660580685  0.9916247911228993  1.0000
  C   C626      1.0  0.1438302874014386  0.7157372458698017  0.964463400802268  1.0000
  C   C627      1.0  0.12396166342593908  0.6428235880039832  0.9271662044293445  1.0000
  C   C628      1.0  0.1217702718647965  0.6644265181032138  0.9191306793474415  1.0000
  C   C629      1.0  0.12679533151098712  0.6868433721702881  0.9306049747290054  1.0000
  C   C630      1.0  0.1362264850108426  0.6892064471652171  0.9504452108440418  1.0000
  C   C631      1.0  0.13635112195872204  0.6665703696511164  0.9591400375269922  1.0000
  C   C632      1.0  0.13084989282543644  0.6439143072932019  0.9473200294729532  1.0000
  C   C633      1.0  0.1702550747046047  0.7245942920887521  0.9785901996089265  1.0000
  C   C634      1.0  0.1744164690906445  0.7385775373944404  0.9967217584887665  1.0000
  C   C635      1.0  0.1977505656301379  0.7481766994766567  0.008400236654343345  1.0000
  C   C636      1.0  0.2182840477938239  0.7442047938106302  0.0017728347919163667  1.0000
  C   C637      1.0  0.2162782880695012  0.7320391292187786  0.9831349445200886  1.0000
  C   C638      1.0  0.19244067172364276  0.7221526494948203  0.9715550996942737  1.0000
  C   C639      1.0  0.1723554962158499  0.755322760950863  0.9378022230652622  1.0000
  C   C640      1.0  0.18433682577727717  0.7822939430130905  0.9315273850896351  1.0000
  C   C641      1.0  0.17641959073394078  0.7997449679588631  0.9394604201314685  1.0000
  C   C642      1.0  0.15688364140614494  0.789886483915907  0.954532574830116  1.0000
  C   C643      1.0  0.14632242714102828  0.7635155488875671  0.9622392139625406  1.0000
  C   C644      1.0  0.1535304784951347  0.7455272020703854  0.9538885702499744  1.0000
  H   H485      1.0  0.4723186142704754  0.6349890863212884  0.9991830491525363  1.0000
  H   H486      1.0  0.036711935357167665  0.6300480617856842  0.9672336912883382  1.0000
  H   H487      1.0  0.0034490292261159764  0.5967786112324197  0.9448220259590094  1.0000
  H   H488      1.0  0.43971962664463465  0.605255368754352  0.9727849801751128  1.0000
  H   H489      1.0  0.050319228235390395  0.6214458490622646  0.004151521542793857  1.0000
  H   H490      1.0  0.04457391377132558  0.5903203151113713  0.03110909250583352  1.0000
  H   H491      1.0  0.4909688563811421  0.6111572325050509  0.06245284131236454  1.0000
  H   H492      1.0  0.4954181730215736  0.6415613061353691  0.03545880040044463  1.0000
  H   H493      1.0  0.04873446497446487  0.6836315415868  0.962727188929441  1.0000
  H   H494      1.0  0.09506793213678927  0.708314510348522  0.9492413352987426  1.0000
  H   H495      1.0  0.1264627090540888  0.6941622116692302  0.0050433378616114855  1.0000
  H   H496      1.0  0.08152724143087273  0.6723225015628669  0.018762255051793058  1.0000
  H   H497      1.0  0.11700370938194529  0.664596215426799  0.9032646092637747  1.0000
  H   H498      1.0  0.12533439940253485  0.7036973659699589  0.9233863105634805  1.0000
  H   H499      1.0  0.14219552674500444  0.666626499052197  0.9749999888022967  1.0000
  H   H500      1.0  0.1317971265220145  0.6266230365180726  0.9535092041315065  1.0000
  H   H501      1.0  0.1583870973898532  0.7422736222686769  0.001890621852892238  1.0000
  H   H502      1.0  0.1985776385159354  0.7584715168871448  0.022596912252500323  1.0000
  H   H503      1.0  0.23383247301551194  0.7315337152966686  0.9767652650148448  1.0000
  H   H504      1.0  0.19214572031418561  0.7142060643174066  0.9568546626036414  1.0000
  H   H505      1.0  0.18018583877588853  0.7430872004331025  0.9311434298648953  1.0000
  H   H506      1.0  0.19856584172721942  0.7890374734433568  0.9190450160303677  1.0000
  H   H507      1.0  0.15163322312468533  0.8043049315200788  0.9617282934642815  1.0000
  H   H508      1.0  0.13047160481207812  0.756787271086653  0.973724217258739  1.0000
  C   C645      1.0  0.3030096345710228  0.5028703901271534  0.8468323694395795  1.0000
  C   C646      1.0  0.3113119233571177  0.9875965434899416  0.8353014750806632  1.0000
  C   C647      1.0  0.33247393642362044  0.9839592587134838  0.8413805111886936  1.0000
  C   C648      1.0  0.3471037117974069  0.9960353001438922  0.8590210356974524  1.0000
  C   C649      1.0  0.3360647870400416  0.5077543236518952  0.8721688251661294  1.0000
  C   C650      1.0  0.31534208704869904  0.512247669269934  0.8655345071992121  1.0000
  H   H509      1.0  0.3028082480150779  0.9808814847903592  0.8202002560422947  1.0000
  H   H510      1.0  0.33989412139744857  0.9744235128466479  0.8306986014900584  1.0000
  H   H511      1.0  0.3455127844675905  0.5153847074689283  0.8870803611452637  1.0000
  H   H512      1.0  0.3096049883986234  0.5237768506536001  0.875368961939657  1.0000
  C   C651      1.0  0.39982690947243565  0.545968544511848  0.8764764662532487  1.0000
  C   C652      1.0  0.39489965091613083  0.5195399019049114  0.8797148455790418  1.0000
  C   C653      1.0  0.41069886093127805  0.5156662815819143  0.8945590746661899  1.0000
  C   C654      1.0  0.4305751708744042  0.5374735672584205  0.905263929896184  1.0000
  C   C655      1.0  0.4331750203935186  0.5632367502687342  0.9035537229588972  1.0000
  C   C656      1.0  0.4174353371924607  0.5673556477831665  0.8888685828891709  1.0000
  C   C657      1.0  0.37425000317821827  0.995106027015993  0.8651321955493853  1.0000
  C   C658      1.0  0.39478132134273  0.9997636143788388  0.8465524339570004  1.0000
  C   C659      1.0  0.4125671464470925  0.9897976129986121  0.8475161462740762  1.0000
  C   C660      1.0  0.4296273009270756  0.9925728244429575  0.8317953978890161  1.0000
  C   C661      1.0  0.4300039343732559  0.5063426412203244  0.8141977050387942  1.0000
  C   C662      1.0  0.4123492014333136  0.5169341020619924  0.8125639832060372  1.0000
  C   C663      1.0  0.3958156666789924  0.5141736621582766  0.8287665877496351  1.0000
  C   C664      1.0  0.34962919964075995  0.9617810667867249  0.8943311490546909  1.0000
  C   C665      1.0  0.335765092295867  0.9367198801825978  0.9033976933456563  1.0000
  C   C666      1.0  0.33306507580222955  0.9139993672632201  0.8937360949414489  1.0000
  C   C667      1.0  0.3456473330750886  0.9171835295429788  0.8751823382846042  1.0000
  C   C668      1.0  0.35714554094821366  0.9418939970333613  0.8652300964831834  1.0000
  C   C669      1.0  0.3604836975734157  0.9651970366843582  0.8752725907079494  1.0000
  C   C670      1.0  0.3180713895158912  0.885057499742792  0.9048891528839883  1.0000
  C   C671      1.0  0.38617627839327145  0.8928139112883621  0.9427018588614424  1.0000
  C   C672      1.0  0.3675405196122778  0.8982854090765393  0.9516292002621638  1.0000
  C   C673      1.0  0.3463820576688762  0.8973582142252283  0.9400202910966268  1.0000
  C   C674      1.0  0.34264213169317065  0.8882611538555453  0.9195865305704389  1.0000
  C   C675      1.0  0.3619406352111976  0.8829010297844136  0.9109146494188474  1.0000
  C   C676      1.0  0.3840007303453189  0.8863190200828621  0.9225556823282867  1.0000
  C   C677      1.0  0.3047973888809262  0.8590046473665917  0.8898062902707066  1.0000
  C   C678      1.0  0.29209187861959307  0.8577233462615746  0.8710857960859868  1.0000
  C   C679      1.0  0.2788054973498097  0.8334283283264781  0.8605354407671428  1.0000
  C   C680      1.0  0.2750202454217529  0.8093991313605443  0.8691767278769224  1.0000
  C   C681      1.0  0.2865652701276714  0.8097875756977729  0.8877182469170424  1.0000
  C   C682      1.0  0.3017821107327118  0.834472304964693  0.897375256214978  1.0000
  C   C683      1.0  0.28153349877393097  0.8618088892603817  0.9331962900704758  1.0000
  C   C684      1.0  0.255701680005752  0.8532271128998096  0.9409824737116119  1.0000
  C   C685      1.0  0.2381991998006016  0.8603133582544962  0.9312780436488678  1.0000
  C   C686      1.0  0.2467412059625581  0.8759174153235346  0.9136176330129314  1.0000
  C   C687      1.0  0.2732057464250918  0.8863619016227573  0.9069328348770248  1.0000
  C   C688      1.0  0.29091755486910265  0.8789049406918907  0.9162257750773984  1.0000
  H   H513      1.0  0.3894492774948835  0.5505474223710758  0.8640812902131455  1.0000
  H   H514      1.0  0.4095023756019214  0.9958409496565679  0.8965920487445929  1.0000
  H   H515      1.0  0.4423428617899256  0.5330815903643553  0.9169263786348916  1.0000
  H   H516      1.0  0.42057716265586415  0.5880117282504524  0.8865419060093737  1.0000
  H   H517      1.0  0.4136404760813669  0.9794789104523957  0.8612957027061693  1.0000
  H   H518      1.0  0.44332731703635775  0.9840975791575008  0.8332730901085323  1.0000
  H   H519      1.0  0.41188838849599524  0.5282369454781559  0.7990352979168017  1.0000
  H   H520      1.0  0.3826828367398917  0.5227242618826762  0.8266005295893505  1.0000
  H   H521      1.0  0.3523763380208135  0.9791100304557226  0.9033808666226597  1.0000
  H   H522      1.0  0.3285849244365569  0.9365390950770336  0.918937936884026  1.0000
  H   H523      1.0  0.34578348203394654  0.8997050237251093  0.8683399808333662  1.0000
  H   H524      1.0  0.36467001750392025  0.9423915349859467  0.8496975014552667  1.0000
  H   H525      1.0  0.368913409329535  0.9036112237194909  0.96767424549043  1.0000
  H   H526      1.0  0.33271189032392545  0.90330082271635  0.9473307373875873  1.0000
  H   H527      1.0  0.3602258613168749  0.8757556568964493  0.895441712772464  1.0000
  H   H528      1.0  0.39914980948761786  0.8819914421368652  0.9156276615599752  1.0000
  H   H529      1.0  0.2918696413489185  0.8756279869736212  0.8645876216051332  1.0000
  H   H530      1.0  0.27146389766196904  0.8333462735552777  0.8453500881137915  1.0000
  H   H531      1.0  0.2845814996657309  0.7917816202407502  0.8954814850268198  1.0000
  H   H532      1.0  0.3102488493279513  0.8342992899217418  0.9125361336348797  1.0000
  H   H533      1.0  0.29433901647752303  0.8544216892686  0.9406413501454088  1.0000
  H   H534      1.0  0.24956295501547168  0.8406310976679744  0.9543796046210559  1.0000
  H   H535      1.0  0.23339106232169604  0.881580116710354  0.9054092515947907  1.0000
  H   H536      1.0  0.2792178037671118  0.8986554821997501  0.8934622782672326  1.0000
  C   C689      1.0  0.3121472104218437  0.727321618961026  0.3486634678075661  1.0000
  C   C690      1.0  0.31818853840711747  0.7501060153624615  0.3601347037849491  1.0000
  C   C691      1.0  0.3381578787786624  0.7754953167317226  0.3536778312605413  1.0000
  C   C692      1.0  0.3529634244247911  0.7787319654843198  0.3360097721141519  1.0000
  C   C693      1.0  0.3449923551979175  0.7556731755485085  0.32383946228136634  1.0000
  C   C694      1.0  0.32505655692102353  0.7301809542489761  0.33022902791378783  1.0000
  H   H537      1.0  0.3091044675163433  0.7479252894192056  0.37504929916826485  1.0000
  H   H538      1.0  0.3421097357196729  0.792917399292457  0.36319563766823265  1.0000
  H   H539      1.0  0.35458321931909925  0.7562666595111722  0.3094143715670415  1.0000
  H   H540      1.0  0.3205578222314768  0.7122838557574291  0.3207938254189887  1.0000
  C   C695      1.0  0.40769686926655735  0.797329845867351  0.31082016778829963  1.0000
  C   C696      1.0  0.39499433839847653  0.8131631184985587  0.3109899647203559  1.0000
  C   C697      1.0  0.4026127687558991  0.8330563384325165  0.2956868250060286  1.0000
  C   C698      1.0  0.4194352327875488  0.8343169350616869  0.28014964087184013  1.0000
  C   C699      1.0  0.4307313979157818  0.8176446854603472  0.2801358735530247  1.0000
  C   C700      1.0  0.42608301646847074  0.8001977250941003  0.2960631317203155  1.0000
  C   C701      1.0  0.37568373546132644  0.8097465772950225  0.32957431541901255  1.0000
  C   C702      1.0  0.39826324254649104  0.8251771042387999  0.34713376571696963  1.0000
  C   C703      1.0  0.41441829992820584  0.8539633288574028  0.3484890817692381  1.0000
  C   C704      1.0  0.43312325254397815  0.8665778703821303  0.3641272262414059  1.0000
  C   C705      1.0  0.4381225066533715  0.8507694977760141  0.3777966441229761  1.0000
  C   C706      1.0  0.4229928844852764  0.8225426795977678  0.3764107340288957  1.0000
  C   C707      1.0  0.40354635243800346  0.8098736721505199  0.36165828706718334  1.0000
  C   C708      1.0  0.34135567022390234  0.8183380907965149  0.30767662999212386  1.0000
  C   C709      1.0  0.32199367087046393  0.8261019018728106  0.3055365767673794  1.0000
  C   C710      1.0  0.31972147559605985  0.8425758782745234  0.3202324247517398  1.0000
  C   C711      1.0  0.33505626335500327  0.8483605217817625  0.33812382040335626  1.0000
  C   C712      1.0  0.351967644184353  0.8375453716593498  0.34102566526921785  1.0000
  C   C713      1.0  0.3564571810076188  0.8230984833984953  0.3255879117709181  1.0000
  C   C714      1.0  0.30142541355935665  0.8563919008886024  0.3156524966924939  1.0000
  C   C715      1.0  0.3541318471082985  0.919944792061473  0.2717163932463817  1.0000
  C   C716      1.0  0.33369312771812626  0.8945070132555529  0.26525034250943036  1.0000
  C   C717      1.0  0.31795790759798476  0.8739163064706144  0.2786474734188744  1.0000
  C   C718      1.0  0.32130958593894005  0.8787460506561868  0.29949272380743264  1.0000
  C   C719      1.0  0.3427798512992183  0.903788727431484  0.30579203701650903  1.0000
  C   C720      1.0  0.35887441276083687  0.9243831662851808  0.29207825777431157  1.0000
  C   C721      1.0  0.2929028959346846  0.8686954450881338  0.334353104750036  1.0000
  C   C722      1.0  0.2842542093696433  0.8550630149838254  0.353038415786672  1.0000
  C   C723      1.0  0.27434846625626275  0.8653319407865295  0.36793771414908194  1.0000
  C   C724      1.0  0.27366559290093034  0.8892671136835614  0.36490584460551956  1.0000
  C   C725      1.0  0.2819199098096669  0.9021035619385656  0.3462128850584305  1.0000
  C   C726      1.0  0.2904123464492578  0.8916249020294007  0.33136100746082925  1.0000
  C   C727      1.0  0.2562371298984592  0.8418596953550522  0.2942718505722269  1.0000
  C   C728      1.0  0.23022271639259104  0.8231455237047725  0.2878088592394567  1.0000
  C   C729      1.0  0.21659316960440275  0.7972072876818119  0.296159502952023  1.0000
  C   C730      1.0  0.2305723389512868  0.7891891398209289  0.30912678757400935  1.0000
  C   C731      1.0  0.25752404161432874  0.8077025767320967  0.3145709973144422  1.0000
  C   C732      1.0  0.2707105463838316  0.8348104736751305  0.3073921054032729  1.0000
  H   H541      1.0  0.404521602552528  0.7831881739402167  0.3233729031437344  1.0000
  H   H542      1.0  0.3956754077394053  0.8477809972927555  0.2958474437255412  1.0000
  H   H543      1.0  0.42670236532101463  0.8505751832377993  0.26943101832303057  1.0000
  H   H544      1.0  0.4362344838360113  0.7883073267503656  0.2976280169589956  1.0000
  H   H545      1.0  0.41269707265574507  0.8663800026720571  0.3364656233371497  1.0000
  H   H546      1.0  0.44570252699665236  0.8888717315287539  0.36450659235987404  1.0000
  H   H547      1.0  0.4250204678162726  0.8095905637680005  0.3878697323895539  1.0000
  H   H548      1.0  0.39302538310163576  0.7874734170139842  0.36174242068216617  1.0000
  H   H549      1.0  0.3435868241313256  0.8064660676727015  0.2954711370112545  1.0000
  H   H550      1.0  0.31080773439910653  0.821531287307979  0.2915000303840661  1.0000
  H   H551      1.0  0.3364785983827582  0.8628031510492563  0.3500264323702876  1.0000
  H   H552      1.0  0.3621316146017838  0.8416884254372506  0.3552687214347617  1.0000
  H   H553      1.0  0.33023425044424554  0.8913321891095796  0.248874881629595  1.0000
  H   H554      1.0  0.30253502666887555  0.8547437500247304  0.2724139373996937  1.0000
  H   H555      1.0  0.3464739403101743  0.907183320773581  0.3219135673493053  1.0000
  H   H556      1.0  0.37650320316199126  0.9438710546850182  0.29714004199209537  1.0000
  H   H557      1.0  0.28217902067410094  0.8350381140211877  0.35464460298179834  1.0000
  H   H558      1.0  0.26602816183113437  0.8537568572057829  0.38197426053239514  1.0000
  H   H559      1.0  0.2798223279906328  0.9200815737988361  0.34257066438072026  1.0000
  H   H560      1.0  0.2944065497075085  0.902468838341957  0.316501481352775  1.0000
  H   H561      1.0  0.2651500265733295  0.8623281839124913  0.2886899676436403  1.0000
  H   H562      1.0  0.22078757619273492  0.8302797808414489  0.2769831575443055  1.0000
  H   H563      1.0  0.22005153244891  0.7692735740009765  0.31612517463848827  1.0000
  H   H564      1.0  0.26748654702825425  0.8008215335112648  0.3255879117709181  1.0000
  C   C733      1.0  0.028236120601133376  0.7257481398082155  0.19668450570262416  1.0000
  C   C734      1.0  0.04703065122662031  0.746459225130732  0.1841883693245415  1.0000
  C   C735      1.0  0.05202006114567476  0.7729164982595379  0.18668637283848555  1.0000
  C   C736      1.0  0.03989812794734156  0.7794714379770225  0.20204458182807425  1.0000
  C   C737      1.0  0.024458286106084862  0.7590687880154178  0.2161805588472764  1.0000
  C   C738      1.0  0.018580643258106773  0.7323316181595957  0.21353723363472563  1.0000
  H   H565      1.0  0.05511936734503116  0.7409725173271642  0.171172134235656  1.0000
  H   H566      1.0  0.06549119193795254  0.7883686852665484  0.17612989871127918  1.0000
  H   H567      1.0  0.016215430929130505  0.7640890092347602  0.22953026899191187  1.0000
  H   H568      1.0  0.004007528742728253  0.7157179402092565  0.2228745351957266  1.0000
  C   C739      1.0  0.48908688829579106  0.7882339814207798  0.21114019045876098  1.0000
  C   C740      1.0  0.016376503231017893  0.8079511967895361  0.21534534150581072  1.0000
  C   C741      1.0  0.020372878404953124  0.8288807895400157  0.2288633188804119  1.0000
  C   C742      1.0  0.4988220162808016  0.8297536089231633  0.23801858589263175  1.0000
  C   C743      1.0  0.471977591512425  0.8097729455132944  0.23366352404070356  1.0000
  C   C744      1.0  0.46755771752278924  0.7897372656006455  0.21949389357550836  1.0000
  C   C745      1.0  0.0425818392174978  0.8091346954281585  0.2041020311399265  1.0000
  C   C746      1.0  0.04191499373574554  0.82436159944237  0.18410117630537748  1.0000
  C   C747      1.0  0.05189458808315719  0.8525050095398067  0.1828361126764542  1.0000
  C   C748      1.0  0.047799284471766096  0.8647103939727727  0.16615471137849952  1.0000
  C   C749      1.0  0.03406712831672795  0.8485963357162175  0.14973687775075464  1.0000
  C   C750      1.0  0.02537869776169128  0.8209309687005844  0.15001757808437907  1.0000
  C   C751      1.0  0.028071561720431217  0.8089770458573879  0.1671428989290249  1.0000
  C   C752      1.0  0.07012643627141373  0.8165378852471277  0.23724455663478994  1.0000
  C   C753      1.0  0.09359604080189671  0.8280083632573211  0.249056916178376  1.0000
  C   C754      1.0  0.11853458232862774  0.8468757580524883  0.24100303467138548  1.0000
  C   C755      1.0  0.11856056780111292  0.8545641105542954  0.22061669491000616  1.0000
  C   C756      1.0  0.09528481245350975  0.8424454769318718  0.20857946915910244  1.0000
  C   C757      1.0  0.0703387564774231  0.823728755764265  0.2170723751660941  1.0000
  C   C758      1.0  0.1462298432096265  0.8605356251300198  0.25533481355818416  1.0000
  C   C759      1.0  0.12527900840276185  0.9136948767114602  0.29101817422552817  1.0000
  C   C760      1.0  0.12203030486622202  0.8900877870987176  0.3000480056663192  1.0000
  C   C761      1.0  0.128805160557205  0.8734498175899681  0.2892223039711679  1.0000
  C   C762      1.0  0.13980584339215507  0.8802565684281912  0.2694631420669331  1.0000
  C   C763      1.0  0.14267909068225018  0.9042264819216307  0.26112320626900104  1.0000
  C   C764      1.0  0.13522280126314193  0.9206089466865737  0.27156342303732206  1.0000
  C   C765      1.0  0.17445925819095298  0.8741820524557001  0.24314614730031117  1.0000
  C   C766      1.0  0.1774403866902147  0.860408371632041  0.22653358259643344  1.0000
  C   C767      1.0  0.20136085807334686  0.8706031642992825  0.21575071255981876  1.0000
  C   C768      1.0  0.22320332451368413  0.8952254514005246  0.2213800162532138  1.0000
  C   C769      1.0  0.22071605122945015  0.9094697987072787  0.23771417517660307  1.0000
  C   C770      1.0  0.19736902882028035  0.8988784166955613  0.248802985631337  1.0000
  C   C771      1.0  0.13863209046222538  0.8116379137408987  0.2622475373055895  1.0000
  C   C772      1.0  0.14204329633614005  0.79302296052598  0.273265981464156  1.0000
  C   C773      1.0  0.15920674924297915  0.8016609027681624  0.2899060808056645  1.0000
  C   C774      1.0  0.17174181337581193  0.8284396797975957  0.2963553048196193  1.0000
  C   C775      1.0  0.1683730227464511  0.8471677833822092  0.2853598061924119  1.0000
  C   C776      1.0  0.15126966312839418  0.8391274933393614  0.26799768746414165  1.0000
  H   H569      1.0  0.48369117875785944  0.7719885485192733  0.20005902851448001  1.0000
  H   H570      1.0  0.04102218111337902  0.844915710924197  0.2325177771748468  1.0000
  H   H571      1.0  0.0031040364801173943  0.8460502400948435  0.24891618358604115  1.0000
  H   H572      1.0  0.4471388310944286  0.7740487010576178  0.2148114754761925  1.0000
  H   H573      1.0  0.06190360180726643  0.8647549284917038  0.19629137226534088  1.0000
  H   H574      1.0  0.05561564749939908  0.887154560162503  0.16666716157884937  1.0000
  H   H575      1.0  0.014879222156051716  0.8075651846977236  0.13736311753991967  1.0000
  H   H576      1.0  0.018916580391948455  0.7871643543857781  0.16666716157884937  1.0000
  H   H577      1.0  0.051290596982491894  0.8032422122774637  0.24522654214352238  1.0000
  H   H578      1.0  0.092738690490613  0.8228236004492818  0.2647302437986276  1.0000
  H   H579      1.0  0.13719566824754847  0.8701417884408378  0.2134974613803701  1.0000
  H   H580      1.0  0.09649636803836208  0.8469772665777067  0.1920969291329253  1.0000
  H   H581      1.0  0.11324181459019038  0.8839314939849697  0.31511404155660394  1.0000
  H   H582      1.0  0.1252437543366084  0.8547218081455562  0.2968815223387845  1.0000
  H   H583      1.0  0.14829082858677003  0.9092139121006472  0.24554777958254764  1.0000
  H   H584      1.0  0.13686327647485233  0.9386014869833283  0.2646155161418328  1.0000
  H   H585      1.0  0.16088805568948816  0.8404088304891364  0.22187411002847648  1.0000
  H   H586      1.0  0.20372348562658563  0.8579813096054982  0.20428559539079816  1.0000
  H   H587      1.0  0.23790702301139677  0.9285094664057332  0.2429059840720876  1.0000
  H   H588      1.0  0.1974650721986061  0.9093724140085024  0.2627278637620368  1.0000
  H   H589      1.0  0.12470353929976431  0.8035262813804944  0.2488351093752395  1.0000
  H   H590      1.0  0.13191918626656002  0.7715306619752026  0.26899046412093874  1.0000
  H   H591      1.0  0.18627562160961061  0.8349150485495984  0.3088330847726148  1.0000
  H   H592      1.0  0.17886121343060776  0.8682085585637342  0.2904384171331921  1.0000
  C   C777      1.0  0.2815946580780181  0.9298600398664113  0.18084138115031637  1.0000
  C   C778      1.0  0.29361202467095626  0.9148932474192488  0.17432179084019414  1.0000
  C   C779      1.0  0.31964175488409197  0.9281617492033403  0.16598032534017154  1.0000
  C   C780      1.0  0.3346824030326359  0.956485164094391  0.16559942951961298  1.0000
  C   C781      1.0  0.3219968202060545  0.9711042119799319  0.1719951139603969  1.0000
  C   C782      1.0  0.29584417013561254  0.9579852670125071  0.17984860449351925  1.0000
  H   H593      1.0  0.28327895471154174  0.892983179603132  0.17667294295344096  1.0000
  H   H594      1.0  0.32847759114420394  0.915461401275685  0.16106539252308502  1.0000
  H   H595      1.0  0.33368761585403434  0.9936431679274405  0.17265594526353456  1.0000
  H   H596      1.0  0.286054328311108  0.9698169511199787  0.184179191111998  1.0000
  C   C783      1.0  0.35465197650195723  0.9498926318531562  0.12415949394493614  1.0000
  C   C784      1.0  0.3738061606756663  0.9619684356980055  0.1399120601334806  1.0000
  C   C785      1.0  0.39957044935825  0.9643676501389133  0.13733818339584294  1.0000
  C   C786      1.0  0.40542347406737983  0.9544125329306155  0.12000268148394923  1.0000
  C   C787      1.0  0.385495378976887  0.9409473676349865  0.1050964994621318  1.0000
  C   C788      1.0  0.3603842223372478  0.9392346135387997  0.1072527675290366  1.0000
  C   C789      1.0  0.3664260331888632  0.9728261143609178  0.16036019985932004  1.0000
  C   C790      1.0  0.3775385549607264  0.9669155892279715  0.1813874847966593  1.0000
  C   C791      1.0  0.3795615956801599  0.9820290021119631  0.19863946497440654  1.0000
  C   C792      1.0  0.3847632711300671  0.9752355779737395  0.21750986996400468  1.0000
  C   C793      1.0  0.38674975012880514  0.9519293199002155  0.22016084368700842  1.0000
  C   C794      1.0  0.3855689535525621  0.9370488646175933  0.20335859592389663  1.0000
  C   C795      1.0  0.3813018783981202  0.9441380591769901  0.18415165647436715  1.0000
  C   C796      1.0  0.36759655280547066  0.5123170413624542  0.13800436865629773  1.0000
  C   C797      1.0  0.38169244297937704  0.5381449868072725  0.12992172875000405  1.0000
  C   C798      1.0  0.40637736635099353  0.558845851987403  0.13881862907912224  1.0000
  C   C799      1.0  0.417261406664005  0.550656295242113  0.15462228731749264  1.0000
  C   C800      1.0  0.40467942747646934  0.5239347929870568  0.16088641737848525  1.0000
  C   C801      1.0  0.37908263136385967  0.5043584090845917  0.1539017976328217  1.0000
  C   C802      1.0  0.42434756858658157  0.588043036089274  0.12789487347996367  1.0000
  C   C803      1.0  0.47151969620581574  0.5645188759912971  0.08830358288177269  1.0000
  C   C804      1.0  0.44506603371184567  0.5581535157328681  0.08297195921520767  1.0000
  C   C805      1.0  0.43102370453326677  0.5665060398453617  0.09505446414799305  1.0000
  C   C806      1.0  0.44244937920930955  0.5810516997300651  0.11292077268532376  1.0000
  C   C807      1.0  0.4685905576334234  0.5862272119873564  0.11876239902889361  1.0000
  C   C808      1.0  0.482795806845007  0.5773542289782833  0.10660157334906967  1.0000
  C   C809      1.0  0.44336376710424913  0.6140535227706257  0.14212737470108244  1.0000
  C   C810      1.0  0.4385378358807161  0.6155820863321266  0.16275724303528472  1.0000
  C   C811      1.0  0.453940913182634  0.6389869212715275  0.17398219697608172  1.0000
  C   C812      1.0  0.4735078770718406  0.6621448602367527  0.16448121729138696  1.0000
  C   C813      1.0  0.47857040511986576  0.6614452389167469  0.14407284981990304  1.0000
  C   C814      1.0  0.4637701857954064  0.6373892440814777  0.13320232785349723  1.0000
  C   C815      1.0  0.4091114038210142  0.6080061369732278  0.09752722757744227  1.0000
  C   C816      1.0  0.39209726083477975  0.6164676066777488  0.08872899303316754  1.0000
  C   C817      1.0  0.37111757340655027  0.6159907166652857  0.10006010829905193  1.0000
  C   C818      1.0  0.3674226000229063  0.6071240481641695  0.11994378795346126  1.0000
  C   C819      1.0  0.3844930467443972  0.598604538474833  0.12853903103031386  1.0000
  C   C820      1.0  0.405165610346529  0.5979440095127305  0.1173608859734891  1.0000
  H   H597      1.0  0.33469514377773435  0.947565426239206  0.12504412066392806  1.0000
  H   H598      1.0  0.41526388078238313  0.9747233833018805  0.14917394738141512  1.0000
  H   H599      1.0  0.4257382534612248  0.9566881468104875  0.11897502761948651  1.0000
  H   H600      1.0  0.34379672474033746  0.9271422599734491  0.09654255834172532  1.0000
  H   H601      1.0  0.375704461917264  0.9992111346744313  0.19775223776186052  1.0000
  H   H602      1.0  0.38561457949909816  0.9873369040328992  0.23054599118006794  1.0000
  H   H603      1.0  0.38748166407529155  0.9186681060583842  0.20561031740125466  1.0000
  H   H604      1.0  0.3764455834578875  0.9295366581791589  0.17191709915377654  1.0000
  H   H605      1.0  0.34800120938819223  0.996831007175856  0.1311875572299726  1.0000
  H   H606      1.0  0.37272647161719763  0.5423691803543308  0.11676399621773836  1.0000
  H   H607      1.0  0.43752841307552315  0.5647360060992211  0.16131779336803345  1.0000
  H   H608      1.0  0.4161660833121752  0.5181670497051274  0.1711415401938441  1.0000
  H   H609      1.0  0.43573141481562716  0.5478311916427463  0.0691616557710936  1.0000
  H   H610      1.0  0.40990374004861885  0.5601373520320538  0.09054597317637804  1.0000
  H   H611      1.0  0.47817924907534465  0.5968957004570806  0.13275075979635315  1.0000
  H   H612      1.0  0.002756027802823863  0.5818037143246035  0.11211446671337036  1.0000
  H   H613      1.0  0.42121956503813873  0.5979321564102988  0.16949405104227164  1.0000
  H   H614      1.0  0.4502491753915558  0.6391635165949345  0.19013279164859942  1.0000
  H   H615      1.0  0.4937014469638515  0.6796804660247876  0.1360899464899162  1.0000
  H   H616      1.0  0.4677370139177053  0.6380929398364888  0.11721464645362809  1.0000
  H   H617      1.0  0.4259224695025536  0.6101306612495231  0.08803282561173707  1.0000
  H   H618      1.0  0.39550754079122785  0.6239001727796532  0.07318645494166195  1.0000
  H   H619      1.0  0.35239755727300676  0.6076261443698062  0.1297055818446028  1.0000
  H   H620      1.0  0.38137686353556377  0.5919569128667783  0.1441433690862796  1.0000
  C   C821      1.0  0.2817227435795398  0.7477220428572795  0.028796335915060697  1.0000
  C   C822      1.0  0.2996751390767898  0.752511861886431  0.013087626285453622  1.0000
  C   C823      1.0  0.32713770249533125  0.7710468776152549  0.01595662844743005  1.0000
  C   C824      1.0  0.33683670653180786  0.7864776841303402  0.033748134552530576  1.0000
  C   C825      1.0  0.3185710683605638  0.7788912983662818  0.04999617124821925  1.0000
  C   C826      1.0  0.2913459409778626  0.7602742191324398  0.04729945943270671  1.0000
  H   H621      1.0  0.29219695728207357  0.7432400366221706  0.9982514605793632  1.0000
  H   H622      1.0  0.34059904758860227  0.7746529254406476  0.0031541557797247766  1.0000
  H   H623      1.0  0.3254982229632696  0.7900436502169058  0.06407539631986023  1.0000
  H   H624      1.0  0.27693355825006877  0.7575137447053404  0.05901758932751202  1.0000
  C   C827      1.0  0.35135665055656107  0.8436978101555981  0.05131370365885001  1.0000
  C   C828      1.0  0.37109919943554404  0.8356621414484237  0.04973795753532657  1.0000
  C   C829      1.0  0.3953286544940079  0.8504764199921011  0.06111985891061877  1.0000
  C   C830      1.0  0.398735958877434  0.8709244214069524  0.074384211678599  1.0000
  C   C831      1.0  0.3780481674534271  0.8768181088606944  0.07693957902094042  1.0000
  C   C832      1.0  0.35531946293357847  0.8645219033619254  0.06433039765836267  1.0000
  C   C833      1.0  0.3676743468138442  0.8113110110909268  0.03529221584277869  1.0000
  C   C834      1.0  0.381535145190634  0.8286586906792524  0.015489457428961882  1.0000
  C   C835      1.0  0.4095981203274385  0.8417739994982906  0.01144665366478715  1.0000
  C   C836      1.0  0.42010399406165716  0.8577296088249744  0.994081492680397  1.0000
  C   C837      1.0  0.40301814089593724  0.8592837144585289  0.9797451246873269  1.0000
  C   C838      1.0  0.37495687638270886  0.8468875645599938  0.9831961326037126  1.0000
  C   C839      1.0  0.3649058654778078  0.8329542166014529  0.0013598152274552078  1.0000
  C   C840      1.0  0.3786994002923963  0.7887202333393221  0.06502778884146561  1.0000
  C   C841      1.0  0.3922529222354548  0.7774106855800731  0.07411834945525334  1.0000
  C   C842      1.0  0.4077469625142904  0.7691144734377771  0.06285316434947365  1.0000
  C   C843      1.0  0.4049365386967817  0.7687926739510796  0.041584492422238245  1.0000
  C   C844      1.0  0.39247885627903356  0.7819941952553686  0.032277173022213  1.0000
  C   C845      1.0  0.3804683846043634  0.7938411765815803  0.044183456274161675  1.0000
  C   C846      1.0  0.42796636604587346  0.7612335743522815  0.07535954973156332  1.0000
  C   C847      1.0  0.4764259383517191  0.8270313611199054  0.119281426948233  1.0000
  C   C848      1.0  0.4661767933543361  0.8000656406002752  0.12496794149981637  1.0000
  C   C849      1.0  0.45156461365674555  0.7788295035114225  0.11137975079925685  1.0000
  C   C850      1.0  0.44521986633153754  0.7840118766777403  0.09201571094502314  1.0000
  C   C851      1.0  0.4559881959230235  0.8113602879830676  0.08643734633124493  1.0000
  C   C852      1.0  0.47094980937617575  0.8323452904165609  0.09985298663598517  1.0000
  C   C853      1.0  0.45257433091922694  0.7619304927135305  0.06313600626602493  1.0000
  C   C854      1.0  0.46213977397932987  0.7440730938105501  0.06787379958102036  1.0000
  C   C855      1.0  0.48321803013831605  0.744315867831624  0.057692255436219225  1.0000
  C   C856      1.0  0.49758664687016035  0.7643009616877432  0.043531038332522275  1.0000
  C   C857      1.0  0.4883548273006989  0.7819372208133095  0.03790953611978925  1.0000
  C   C858      1.0  0.4664706795605514  0.7812151706111431  0.04805191989107112  1.0000
  C   C859      1.0  0.39645673572563417  0.7230970607243699  0.102876136877631  1.0000
  C   C860      1.0  0.38079810213955956  0.6959507625704182  0.10856877023757676  1.0000
  C   C861      1.0  0.3703062113031377  0.6752794464926768  0.09381051040791999  1.0000
  C   C862      1.0  0.37752582776192295  0.6829947877231939  0.07380292488417234  1.0000
  C   C863      1.0  0.3950224493780227  0.710079549341479  0.06859015907004669  1.0000
  C   C864      1.0  0.40600176534993615  0.730804584721022  0.08303804234552142  1.0000
  H   H625      1.0  0.33229274256494795  0.8339004156769517  0.041975484276594706  1.0000
  H   H626      1.0  0.41219901615254556  0.8464655286897594  0.059266165917233944  1.0000
  H   H627      1.0  0.4172534276513482  0.8815975454035041  0.08334275900196825  1.0000
  H   H628      1.0  0.3380005578365982  0.8683161104868936  0.06558429446202461  1.0000
  H   H629      1.0  0.4236366282010751  0.8398350286353509  0.022162782799189054  1.0000
  H   H630      1.0  0.4419039494300117  0.8680162483896722  0.9912469547065218  1.0000
  H   H631      1.0  0.3616641118900177  0.8479967722810147  0.9717478421576885  1.0000
  H   H632      1.0  0.3435120840960196  0.8253027965352946  0.004599724255338611  1.0000
  H   H633      1.0  0.36614125285350135  0.7939043809519156  0.07445197748121243  1.0000
  H   H634      1.0  0.39139461757800886  0.776768465122801  0.09077038047306854  1.0000
  H   H635      1.0  0.4151867890249763  0.760875027539112  0.0321251206344077  1.0000
  H   H636      1.0  0.39279104504103046  0.7838416329396435  0.015580321733143313  1.0000
  H   H637      1.0  0.4696504791386039  0.7950204350876392  0.1403893271857467  1.0000
  H   H638      1.0  0.4464701357186276  0.7587779153477259  0.11644260580850405  1.0000
  H   H639      1.0  0.4525302238403214  0.8161215097531002  0.07089266665681253  1.0000
  H   H640      1.0  0.479604413520355  0.8533722655362699  0.09518418288527564  1.0000
  H   H641      1.0  0.4532486031775732  0.7295074980704543  0.08023746375805739  1.0000
  H   H642      1.0  0.4911280079758917  0.7306175724515653  0.0626796961324  1.0000
  H   H643      1.0  0.4993460043225873  0.7970153491075637  0.025873840070976113  1.0000
  H   H644      1.0  0.4610465515265564  0.7966484664980377  0.04400876429541555  1.0000
  H   H645      1.0  0.40085355245364607  0.7385038102332613  0.11435700997818479  1.0000
  H   H646      1.0  0.37500671695703197  0.6914896624895238  0.1244863912816966  1.0000
  H   H647      1.0  0.36849216282900926  0.6683584010703089  0.06138067311706547  1.0000
  H   H648      1.0  0.39898187699706766  0.7143384369299293  0.05264653309038672  1.0000
  C   C865      1.0  0.25522076510349556  0.7423257418086882  0.8402867741939171  1.0000
  C   C866      1.0  0.2553323956245211  0.7220351088951666  0.8517977824256557  1.0000
  C   C867      1.0  0.2386726283911761  0.6947059290948056  0.8470480574343536  1.0000
  C   C868      1.0  0.21921984014423934  0.6865454233077753  0.8316516058925  1.0000
  C   C869      1.0  0.2208868829239162  0.7075301819657622  0.8189153062861937  1.0000
  C   C870      1.0  0.23901095136447234  0.7347278246481179  0.8230623286538007  1.0000
  H   H649      1.0  0.26914870607848435  0.7278777386087899  0.8648966214274334  1.0000
  H   H650      1.0  0.2382611723350463  0.6791457568885636  0.857430145523232  1.0000
  H   H651      1.0  0.20908919150598046  0.7021918706674425  0.8046187105474789  1.0000
  H   H652      1.0  0.24103654672717384  0.7513598514128019  0.8135904133088273  1.0000
  C   C871      1.0  0.15783591352283832  0.6614609907304055  0.8151063480806084  1.0000
  C   C872      1.0  0.17118443963049992  0.6464075192159376  0.8153419222025603  1.0000
  C   C873      1.0  0.1601956219990072  0.6229812035320654  0.8031884390927713  1.0000
  C   C874      1.0  0.1381176268413909  0.6157923761385529  0.7904001296153846  1.0000
  C   C875      1.0  0.12633196116925421  0.6319811815150994  0.7889637393523146  1.0000
  C   C876      1.0  0.13572151917843384  0.6544915285493389  0.8020702268645455  1.0000
  C   C877      1.0  0.1967970040401031  0.6546269701073757  0.8303268838820435  1.0000
  C   C878      1.0  0.18097310565055982  0.6424626259197812  0.8513679361381981  1.0000
  C   C879      1.0  0.16834517999090992  0.6147454041350473  0.8565796311608603  1.0000
  C   C880      1.0  0.15619205389903545  0.6056097770965134  0.8753246005790296  1.0000
  C   C881      1.0  0.1568331982633937  0.6241481732330343  0.889535533000671  1.0000
  C   C882      1.0  0.16816378715560587  0.6515067886239964  0.88389093228637  1.0000
  C   C883      1.0  0.17903763904866135  0.6603774431032096  0.8649256857671547  1.0000
  C   C884      1.0  0.22598854683150152  0.6508717472963554  0.8018499497634993  1.0000
  C   C885      1.0  0.2409326135924124  0.6404589728990671  0.793201014143267  1.0000
  C   C886      1.0  0.2450694367535978  0.6208994556537306  0.8032893994307506  1.0000
  C   C887      1.0  0.23702139556790403  0.6155189612190437  0.8232917839673902  1.0000
  C   C888      1.0  0.22226290546614913  0.6260450758070205  0.8321212244343131  1.0000
  C   C889      1.0  0.21585095100476667  0.6431463212475074  0.8213398840997891  1.0000
  C   C890      1.0  0.2552738928566977  0.6037333265854823  0.7904322533592871  1.0000
  C   C891      1.0  0.18257487695256577  0.5593636921416637  0.7516604241710287  1.0000
  C   C892      1.0  0.20609248817672243  0.5806762097674124  0.7437992851274534  1.0000
  C   C893      1.0  0.22935853668072162  0.5941880730710961  0.7554693823766139  1.0000
  C   C894      1.0  0.22950999696072336  0.5871168734093859  0.775955152773882  1.0000
  C   C895      1.0  0.20556733237517266  0.5661053237804722  0.7840380986205938  1.0000
  C   C896      1.0  0.18270909583887623  0.5521806945070853  0.771880026404533  1.0000
  C   C897      1.0  0.263488542320388  0.5848711671487764  0.8031731420718653  1.0000
  C   C898      1.0  0.28109545877172504  0.595115813694647  0.8197719394569277  1.0000
  C   C899      1.0  0.29197539038395715  0.5808803086649216  0.8288736668959767  1.0000
  C   C900      1.0  0.2852338990303615  0.5554008256267464  0.8212526910806252  1.0000
  C   C901      1.0  0.26796543370879444  0.5448658458530514  0.8048940569237863  1.0000
  C   C902      1.0  0.25722159027527564  0.559004129840816  0.7958458690579081  1.0000
  C   C903      1.0  0.3022064091296769  0.6480548184842765  0.7866829535352351  1.0000
  C   C904      1.0  0.3285862033562368  0.6625427316135314  0.7791522301432287  1.0000
  C   C905      1.0  0.3369107181956264  0.6510439583107651  0.7643401247999829  1.0000
  C   C906      1.0  0.31906593768772856  0.6254548582819582  0.7567267974950842  1.0000
  C   C907      1.0  0.2925866242964731  0.6115202148188604  0.7639133379167065  1.0000
  C   C908      1.0  0.28374566509105786  0.6222729966232172  0.7790680965282459  1.0000
  H   H653      1.0  0.1637273610972937  0.6789149193920614  0.8252788669830751  1.0000
  H   H654      1.0  0.16817403615008594  0.6090810504494396  0.8036641764429469  1.0000
  H   H655      1.0  0.1302336745792291  0.5975683234636163  0.7813672387704124  1.0000
  H   H656      1.0  0.12470277923826502  0.6658915694511472  0.8027065829342334  1.0000
  H   H657      1.0  0.16674267901045078  0.5991221506034384  0.8465264290214602  1.0000
  H   H658      1.0  0.14639388586276597  0.5838220878479193  0.8781882028926263  1.0000
  H   H659      1.0  0.16825409415830286  0.6669433771222844  0.8940190898282093  1.0000
  H   H660      1.0  0.18689085699613772  0.6816134900993837  0.8611962720702805  1.0000
  H   H661      1.0  0.22156330717672032  0.6644272793322831  0.7925753659882128  1.0000
  H   H662      1.0  0.24786119466657347  0.645543498417629  0.7778091517076849  1.0000
  H   H663      1.0  0.23976150061116366  0.6007578218170273  0.8321166353280414  1.0000
  H   H664      1.0  0.21589966951280276  0.6203311120750266  0.8474595472967241  1.0000
  H   H665      1.0  0.2058054272593444  0.5880085461433792  0.7283737692458787  1.0000
  H   H666      1.0  0.2472176125541179  0.6114744245518257  0.7489528514706729  1.0000
  H   H667      1.0  0.20520513762835776  0.5608284818725567  0.7997649658140163  1.0000
  H   H668      1.0  0.16447550156431318  0.534723853542742  0.7785816512634361  1.0000
  H   H669      1.0  0.28639576925065074  0.6148990157790525  0.825483847063215  1.0000
  H   H670      1.0  0.3067159261112959  0.589307238655575  0.8421101790859082  1.0000
  H   H671      1.0  0.26269907090317257  0.5251875416137947  0.7988425554533866  1.0000
  H   H672      1.0  0.2450374894017095  0.5504637000548476  0.7824670945735512  1.0000
  H   H673      1.0  0.2979392274041252  0.6572739212364417  0.7998383915143649  1.0000
  H   H674      1.0  0.3418550510194917  0.6823167493087511  0.7856060432634553  1.0000
  H   H675      1.0  0.32651922461292837  0.6157476026443915  0.7464074271919203  1.0000
  H   H676      1.0  0.27843591258114236  0.5905278170097533  0.7590412367581566  1.0000
  C   C909      1.0  0.05418795558738721  0.7314242861136158  0.6810692617962727  1.0000
  C   C910      1.0  0.036036819393682785  0.7092691270470851  0.6694848278641855  1.0000
  C   C911      1.0  0.02857873182752391  0.683031467547316  0.6754812600593237  1.0000
  C   C912      1.0  0.04071647306416942  0.6780383528018744  0.6921427752301008  1.0000
  C   C913      1.0  0.057564566538416434  0.7006405334814191  0.7044798225907614  1.0000
  C   C914      1.0  0.06396400540931793  0.7267319903964234  0.6991947018677505  1.0000
  H   H677      1.0  0.028393632419480237  0.712441722542027  0.6549878411516026  1.0000
  H   H678      1.0  0.013155996731443739  0.6656534143327111  0.6671703886011131  1.0000
  H   H679      1.0  0.06542149472767994  0.6980946765891133  0.7190089330472467  1.0000
  H   H680      1.0  0.07865798232176453  0.7444721767417847  0.7081342808851963  1.0000
  C   C915      1.0  0.08319032167849548  0.6610183445233427  0.7111141405576782  1.0000
  C   C916      1.0  0.055063572527080974  0.6443948341990045  0.71263160503155  1.0000
  C   C917      1.0  0.045879783807733714  0.6231905366723859  0.7266666217127726  1.0000
  C   C918      1.0  0.06342126482635844  0.6199937623191896  0.739702742928836  1.0000
  C   C919      1.0  0.09144622338196481  0.6379744681481144  0.7386380702737808  1.0000
  C   C920      1.0  0.10132315381409357  0.6591572111755793  0.724466910106495  1.0000
  C   C921      1.0  0.03543682841306799  0.647648298687155  0.6966293914618201  1.0000
  C   C922      1.0  0.04081192620121621  0.6342643514237611  0.6765811158624626  1.0000
  C   C923      1.0  0.03178858363943575  0.6064298328076048  0.6757673143502653  1.0000
  C   C924      1.0  0.03622358294633807  0.5947658760967658  0.6587157251463863  1.0000
  C   C925      1.0  0.05020575827124879  0.6105281873431021  0.6423234375435544  1.0000
  C   C926      1.0  0.060292494066597015  0.6387020398509282  0.6432795013501771  1.0000
  C   C927      1.0  0.05631018802310072  0.6503592368420494  0.6603540360854151  1.0000
  C   C928      1.0  0.0009061270392118879  0.6431603555224381  0.7235567373625901  1.0000
  C   C929      1.0  0.47607960537776134  0.6303236972063013  0.7330271230054732  1.0000
  C   C930      1.0  0.45344568319162265  0.6078672688658291  0.7242145092615466  1.0000
  C   C931      1.0  0.4567807390150616  0.5999527356937696  0.7050473420663725  1.0000
  C   C932      1.0  0.48214376450599167  0.6127122372348036  0.6955540108921309  1.0000
  C   C933      1.0  0.004785549644401972  0.6331712160225804  0.7052966835071399  1.0000
  C   C934      1.0  0.42508929773040044  0.591629361703033  0.7364521259863185  1.0000
  C   C935      1.0  0.4587481407995618  0.5511523129269912  0.7756415638453097  1.0000
  C   C936      1.0  0.45685376910768233  0.5729656786058186  0.7835057622930662  1.0000
  C   C937      1.0  0.44490924575134133  0.5850675030040361  0.7716888136432085  1.0000
  C   C938      1.0  0.43596296764034426  0.5764555444892498  0.7516910182128406  1.0000
  C   C939      1.0  0.4392565361133517  0.5547732621858487  0.7443943392406954  1.0000
  C   C940      1.0  0.45046645904337446  0.5424508307914866  0.7559405306205176  1.0000
  C   C941      1.0  0.3981214903678681  0.5721918636002287  0.7230244010350628  1.0000
  C   C942      1.0  0.390434344377644  0.5830745363105787  0.7066856530054014  1.0000
  C   C943      1.0  0.3652927424294733  0.568539986321149  0.6975288562910908  1.0000
  C   C944      1.0  0.3462833804341399  0.5431438525907997  0.7046312630977303  1.0000
  C   C945      1.0  0.3536366993983067  0.5320361110183285  0.720410140162233  1.0000
  C   C946      1.0  0.3794692796993472  0.5457613145622808  0.7288801006378658  1.0000
  C   C947      1.0  0.39769920274102066  0.6022478667807376  0.7635829222651376  1.0000
  C   C948      1.0  0.38806630461663366  0.618644460030241  0.7712390812285731  1.0000
  C   C949      1.0  0.3954803147835278  0.6435469136053984  0.7618727153278508  1.0000
  C   C950      1.0  0.4131648965424628  0.6523826937978635  0.7457144721448802  1.0000
  C   C951      1.0  0.4224235407322062  0.636020292802703  0.7380996151378908  1.0000
  C   C952      1.0  0.4160739412509678  0.6113212249696551  0.7474415058051636  1.0000
  H   H681      1.0  0.09229676688090907  0.6770716463480941  0.6996367857719329  1.0000
  H   H682      1.0  0.024492368195035082  0.6072359595136368  0.7272173144653874  1.0000
  H   H683      1.0  0.05544290581353678  0.6018867762731294  0.7494790689898382  1.0000
  H   H684      1.0  0.12308633024674023  0.6723791166989344  0.7232018464775716  1.0000
  H   H685      1.0  0.02019947293049994  0.5942028884978844  0.6888936879896738  1.0000
  H   H686      1.0  0.029417136655087658  0.5730736712033287  0.6582063343502176  1.0000
  H   H687      1.0  0.07223075359647091  0.6517812358074636  0.6302602068571105  1.0000
  H   H688      1.0  0.06415612341381141  0.6717977232426415  0.6599119521812327  1.0000
  H   H689      1.0  0.017649877929747274  0.6599254166369821  0.7316366238051206  1.0000
  H   H690      1.0  0.4745143466178026  0.6381759905882225  0.7478224016257221  1.0000
  H   H691      1.0  0.44016277217215244  0.582534736394753  0.6970408813241906  1.0000
  H   H692      1.0  0.4842157872734684  0.6062234413028537  0.6806378858067245  1.0000
  H   H693      1.0  0.4627481216727671  0.5788460883975305  0.7991117830213316  1.0000
  H   H694      1.0  0.4436903520316716  0.6022249684569125  0.7782084039533309  1.0000
  H   H695      1.0  0.4336455714954706  0.5480040914804043  0.728765372981071  1.0000
  H   H696      1.0  0.4512550216456506  0.5245916678753175  0.7501659052285159  1.0000
  H   H697      1.0  0.4042923245857949  0.6037783009411833  0.7017707201883149  1.0000
  H   H698      1.0  0.36011855428471207  0.5784345379081225  0.6855910611760759  1.0000
  H   H699      1.0  0.33808663987675996  0.5128638031837786  0.7268455968573725  1.0000
  H   H700      1.0  0.38368415048642146  0.5365169495256682  0.7418749198974832  1.0000
  H   H701      1.0  0.3898918851748933  0.5821941817732108  0.7703197302721246  1.0000
  H   H702      1.0  0.3747041944791293  0.6119202805803321  0.7847601180073553  1.0000
  H   H703      1.0  0.41845442542142247  0.6717110439570806  0.7381990457737796  1.0000
  H   H704      1.0  0.4346890070463274  0.6427255521323639  0.7242389844949961  1.0000
  C   C953      1.0  0.06216571412204107  0.769888376881908  0.527675325257529  1.0000
  C   C954      1.0  0.04010737172014057  0.769149090513153  0.5371686564317709  1.0000
  C   C955      1.0  0.03140194373659  0.7870763815712833  0.5306918977801853  1.0000
  C   C956      1.0  0.04526078432217387  0.8065130523357988  0.515434649128576  1.0000
  C   C957      1.0  0.06519132900321825  0.8039662359932452  0.5047542691320313  1.0000
  C   C958      1.0  0.07392706632561336  0.7864891744973521  0.5110612308515606  1.0000
  H   H705      1.0  0.029947046880611245  0.7549641470268506  0.5496556145973099  1.0000
  H   H706      1.0  0.01375767665077975  0.7859753476640186  0.5386815317993711  1.0000
  H   H707      1.0  0.07545278848087346  0.8170312147724166  0.49137243524349333  1.0000
  H   H708      1.0  0.08990179902732726  0.7855437283554105  0.5030823047470093  1.0000
  C   C959      1.0  0.08439993102086756  0.8671967072108833  0.5004940488097201  1.0000
  C   C960      1.0  0.05622630316639038  0.8529042610512942  0.49545215071911414  1.0000
  C   C961      1.0  0.04790286756442965  0.8623738300560121  0.4785198782783016  1.0000
  C   C962      1.0  0.06656523944764428  0.883233851054808  0.4667274048618933  1.0000
  C   C963      1.0  0.09380642159787775  0.8965280030089366  0.47114059539326414  1.0000
  C   C964      1.0  0.10206685629771885  0.888852247485494  0.48832526867902504  1.0000
  C   C965      1.0  0.03515425916099712  0.8275735277227724  0.5095498851860513  1.0000
  C   C966      1.0  0.033859168368405614  0.8441624069620903  0.5291377204561393  1.0000
  C   C967      1.0  0.021928646882428553  0.8603491375162813  0.5273449096059604  1.0000
  C   C968      1.0  0.021700828696679983  0.8761685354193285  0.5433134697296971  1.0000
  C   C969      1.0  0.03292144442571892  0.875296297190288  0.5619559491077962  1.0000
  C   C970      1.0  0.04492688062677244  0.8595314270377047  0.5639323242088469  1.0000
  C   C971      1.0  0.04668711520220743  0.8450754841974166  0.5478077344718694  1.0000
  C   C972      1.0  0.007593818974847064  0.7945124945806985  0.4801933723654144  1.0000
  C   C973      1.0  0.48417369417173806  0.7784168875625096  0.46884757195946003  1.0000
  C   C974      1.0  0.4595385016648445  0.7770551978681167  0.47388335124170367  1.0000
  C   C975      1.0  0.45930065056910724  0.7904802955249398  0.4913831431581274  1.0000
  C   C976      1.0  0.48222301855304495  0.8040554791438695  0.5037125420083352  1.0000
  C   C977      1.0  0.007307554423138054  0.8079786429997741  0.49762279798567055  1.0000
  C   C978      1.0  0.43347633082204057  0.7611859101697059  0.45918444385316226  1.0000
  C   C979      1.0  0.4651262596096627  0.8295978315281429  0.41601472115443866  1.0000
  C   C980      1.0  0.4668942490132423  0.806641035997709  0.41167954542968827  1.0000
  C   C981      1.0  0.4562112670218991  0.7847030685126423  0.425017017957599  1.0000
  C   C982      1.0  0.4418871119688632  0.7842712717833433  0.4421940427329069  1.0000
  C   C983      1.0  0.43972451450939615  0.8070337332704501  0.44570164962664466  1.0000
  C   C984      1.0  0.4510692463743196  0.8293861209775976  0.43320092414229017  1.0000
  C   C985      1.0  0.40413835871646997  0.75049874432507  0.4693003637782766  1.0000
  C   C986      1.0  0.39879390857805036  0.739456610826198  0.4886618031389563  1.0000
  C   C987      1.0  0.37315759250743197  0.7299090597573255  0.4972036596128471  1.0000
  C   C988      1.0  0.35175021473971174  0.728480448131137  0.4859572898427819  1.0000
  C   C989      1.0  0.356448047804908  0.7380470451680536  0.4659090142434242  1.0000
  C   C990      1.0  0.38266573907626766  0.7495040223076291  0.4579790386057722  1.0000
  C   C991      1.0  0.4118386674614407  0.7211601992733014  0.4328842758095367  1.0000
  C   C992      1.0  0.40465696552932473  0.6956410447461323  0.42579563632171274  1.0000
  C   C993      1.0  0.4132099310717157  0.68000254950311  0.43655250142278706  1.0000
  C   C994      1.0  0.4283657802946245  0.6902809219684067  0.4545127336684804  1.0000
  C   C995      1.0  0.4349900381720543  0.7158900077858166  0.4613015515465476  1.0000
  C   C996      1.0  0.4278794540978933  0.7323351867597573  0.45038712713014184  1.0000
  H   H709      1.0  0.0923681742552671  0.8608768285782518  0.512939705018813  1.0000
  H   H710      1.0  0.026710622923384553  0.8525736240814067  0.47367684145947314  1.0000
  H   H711      1.0  0.058567022101022194  0.8891592819698048  0.45295090783398134  1.0000
  H   H712      1.0  0.12430767003342057  0.8992529383821258  0.4913831431581274  1.0000
  H   H713      1.0  0.014186705526144957  0.8618100966142656  0.5125175072418084  1.0000
  H   H714      1.0  0.012206239967227852  0.8888086400143198  0.5409041889370075  1.0000
  H   H715      1.0  0.05474214356585568  0.8589865685501461  0.5777455340869332  1.0000
  H   H716      1.0  0.05844465487816139  0.8344447012923749  0.5500931093952205  1.0000
  H   H717      1.0  0.026778162109493325  0.797142572401694  0.4746237270535524  1.0000
  H   H718      1.0  0.48483345640537506  0.767870160435407  0.45554222317545184  1.0000
  H   H719      1.0  0.440458615091264  0.7891656905470531  0.4962353581894995  1.0000
  H   H720      1.0  0.4788196289753441  0.812587440361894  0.5177444992853767  1.0000
  H   H721      1.0  0.47776361936816236  0.805832951829039  0.3982120482240768  1.0000
  H   H722      1.0  0.4602363760981098  0.7681999999956893  0.42202492066839226  1.0000
  H   H723      1.0  0.4287779899267481  0.8073415949534551  0.4588157856493283  1.0000
  H   H724      1.0  0.4490843384750821  0.8472867527290469  0.43703282787923436  1.0000
  H   H725      1.0  0.4143302737038957  0.737715268696468  0.4978185998532669  1.0000
  H   H726      1.0  0.3698916257827445  0.7209845422179225  0.5124333736268256  1.0000
  H   H727      1.0  0.3397963270305633  0.7356409668811998  0.45595677244200344  1.0000
  H   H728      1.0  0.3847818658308375  0.7546799959170415  0.4418391518478885  1.0000
  H   H729      1.0  0.40380354030022547  0.7322688126293738  0.42431641440010576  1.0000
  H   H730      1.0  0.3927704215306304  0.6887730458193434  0.4123006044784704  1.0000
  H   H731      1.0  0.4353573540305646  0.6786297068877883  0.4639142827172864  1.0000
  H   H732      1.0  0.44685672903568924  0.7225008509807737  0.47526008312324053  1.0000
  C   C997      1.0  0.2224063382508861  0.9133846921728407  0.3767013774261092  1.0000
  C   C998      1.0  0.2016114911414913  0.9066118452443157  0.3904579883268432  1.0000
  C   C999      1.0  0.1930255850365765  0.9250577200494133  0.39445357018748123  1.0000
  C   C1000     1.0  0.2056208805330798  0.9508617587745514  0.385682258400001  1.0000
  C   C1001     1.0  0.22565848201464017  0.9570002854373908  0.3712342221543172  1.0000
  C   C1002     1.0  0.23409447508139886  0.9382106211330248  0.36698318004454955  1.0000
  H   H733      1.0  0.19234155115281262  0.8870286110223952  0.39844456294184744  1.0000
  H   H734      1.0  0.17580392637620632  0.9193416603363567  0.40446700007252595  1.0000
  H   H735      1.0  0.2351921013216532  0.9761697352454133  0.36293864771701245  1.0000
  H   H736      1.0  0.24931764277658805  0.942921208231639  0.3555042955567136  1.0000
  C   C1003     1.0  0.18880859024305785  0.9625452500079291  0.42919157496283683  1.0000
  C   C1004     1.0  0.1818030467031817  0.9715140676082915  0.4114669168390953  1.0000
  C   C1005     1.0  0.16158093330677717  0.9792069620820746  0.41362991559519874  1.0000
  C   C1006     1.0  0.14749337012721003  0.9745986256306158  0.4314494152485572  1.0000
  C   C1007     1.0  0.15306694326403825  0.9630513637114195  0.44809257399424696  1.0000
  C   C1008     1.0  0.17510645273681105  0.9587989315722075  0.4472007576754292  1.0000
  C   C1009     1.0  0.19546204585994778  0.97281065441075  0.3899516569348558  1.0000
  C   C1010     1.0  0.17329910038664811  0.9629555205447993  0.37195318213689754  1.0000
  C   C1011     1.0  0.18060100441870267  0.9735369710484162  0.3526208071159392  1.0000
  C   C1012     1.0  0.1617639169611673  0.9629068708560274  0.33669354894864856  1.0000
  C   C1013     1.0  0.13539153268941684  0.9415470147631585  0.33991816095562594  1.0000
  C   C1014     1.0  0.12887108632759275  0.9296674892828879  0.35904402619435377  1.0000
  C   C1015     1.0  0.14721694542290042  0.9408610910400783  0.3749253932989265  1.0000
  C   C1016     1.0  0.24387198428023815  0.5117916603695704  0.3998580076735588  1.0000
  C   C1017     1.0  0.26207422712118006  0.5389674068761411  0.40522420260737113  1.0000
  C   C1018     1.0  0.25510741825689176  0.5592166856806324  0.40189710056032374  1.0000
  C   C1019     1.0  0.23146877569909202  0.5514136788858345  0.3899409490202216  1.0000
  C   C1020     1.0  0.2135279596373609  0.5244410678990363  0.3849571796090583  1.0000
  C   C1021     1.0  0.2188101309938276  0.503768798465616  0.39049164177283635  1.0000
  C   C1022     1.0  0.26981180953955447  0.5870817620118731  0.414758835738059  1.0000
  C   C1023     1.0  0.20130356231676994  0.5542531001658406  0.4577511129942731  1.0000
  C   C1024     1.0  0.2225614494264414  0.5486954840993801  0.46048316092807845  1.0000
  C   C1025     1.0  0.24477388048011287  0.5595983683592036  0.4476045990273467  1.0000
  C   C1026     1.0  0.2466011562952024  0.5773536967034323  0.43172476162486456  1.0000
  C   C1027     1.0  0.2248837238979607  0.5826101663555073  0.4291349759854847  1.0000
  C   C1028     1.0  0.203466955909972  0.571981463693999  0.44253669600120055  1.0000
  C   C1029     1.0  0.2750118647876097  0.6139492529157589  0.4028256297293158  1.0000
  C   C1030     1.0  0.2808491673880793  0.6170885687052128  0.38221595346270937  1.0000
  C   C1031     1.0  0.28970126158868775  0.6419295158221284  0.37250081548533104  1.0000
  C   C1032     1.0  0.29472809417744505  0.664934266739358  0.384033239546338  1.0000
  C   C1033     1.0  0.28899871318295095  0.6619896989589222  0.4047897672136417  1.0000
  C   C1034     1.0  0.2777675981915571  0.6364283193558865  0.41352742555512895  1.0000
  C   C1035     1.0  0.30933122546179065  0.6088767061331816  0.44233018621897013  1.0000
  C   C1036     1.0  0.33672413243350585  0.6200609279131053  0.44752352481654506  1.0000
  C   C1037     1.0  0.3547010228162402  0.6182562092823275  0.4346342550011791  1.0000
  C   C1038     1.0  0.3458008089224443  0.6061284015550636  0.4158357460098389  1.0000
  C   C1039     1.0  0.31905092555118897  0.5969651185872523  0.4100886552554679  1.0000
  C   C1040     1.0  0.3000630150697455  0.5971812837686021  0.42340318225201967  1.0000
  H   H737      1.0  0.20507651975603683  0.9579047468132947  0.4288473919924526  1.0000
  H   H738      1.0  0.15565415246890818  0.986751684529645  0.40035822025718365  1.0000
  H   H739      1.0  0.13054791188605042  0.9787101630657353  0.43148306869455033  1.0000
  H   H740      1.0  0.18019414870872633  0.9492048503552649  0.4598009137956726  1.0000
  H   H741      1.0  0.2009270508519252  0.9908060737275147  0.3502084669190685  1.0000
  H   H742      1.0  0.16775639289102304  0.9728294245917731  0.3218783842012216  1.0000
  H   H743      1.0  0.10825113707319027  0.91218391666704  0.3616536979609114  1.0000
  H   H744      1.0  0.14110252730091408  0.9322776224989491  0.3898430480864234  1.0000
  H   H745      1.0  0.2494877050426095  0.9968705235619462  0.4053190441369882  1.0000
  H   H746      1.0  0.27960582095511755  0.5428195183375152  0.41510454841053374  1.0000
  H   H747      1.0  0.22658842817429917  0.5671480539128932  0.38587041175714437  1.0000
  H   H748      1.0  0.194004456022127  0.5197026616117556  0.377937376715311  1.0000
  H   H749      1.0  0.2211648313769403  0.5349536061260103  0.47231693630093285  1.0000
  H   H750      1.0  0.2605635577409585  0.5540891131166521  0.44967581565801434  1.0000
  H   H751      1.0  0.22473074214212668  0.5961507319499016  0.41733944316489524  1.0000
  H   H752      1.0  0.18766972687720296  0.5774408170459248  0.44018860329213505  1.0000
  H   H753      1.0  0.277468063524823  0.5993564517054826  0.373316146699619  1.0000
  H   H754      1.0  0.2947738459796006  0.6441839975437095  0.3563226861751827  1.0000
  H   H755      1.0  0.2929254955081318  0.6792402835738615  0.41399704409694194  1.0000
  H   H756      1.0  0.2751384149856828  0.6348971570174735  0.4298355795429779  1.0000
  H   H757      1.0  0.29568457988352087  0.6103508031274656  0.4534312342904287  1.0000
  H   H758      1.0  0.3426406482436123  0.6284688934400017  0.4629444515918482  1.0000
  H   H759      1.0  0.359221481149089  0.6027086135266274  0.4059462219941326  1.0000
  H   H760      1.0  0.31373820990908335  0.5882054762810597  0.39486506004985167  1.0000
  C   C1041     1.0  0.27226820056133566  0.9921488804600975  0.68275499350011  1.0000
  C   C1042     1.0  0.24994202926993025  0.9780554162788824  0.6955264762545  1.0000
  C   C1043     1.0  0.2251334578551432  0.9759589195750078  0.6898726973276554  1.0000
  C   C1044     1.0  0.2223500054646711  0.9869265335583339  0.6718237423607076  1.0000
  C   C1045     1.0  0.24378759176408116  0.9964348821047245  0.6579386364843632  1.0000
  C   C1046     1.0  0.26858979070970934  0.9999140413994324  0.6638386974477942  1.0000
  H   H761      1.0  0.25157428941077387  0.9702779407187309  0.7102253836430417  1.0000
  H   H762      1.0  0.20739670107952154  0.9649438747837051  0.6992818948869144  1.0000
  H   H763      1.0  0.24099102118697202  0.5024180860758836  0.6428068234041828  1.0000
  H   H764      1.0  0.28493908689189384  0.5092360125318399  0.6530374709860921  1.0000
  C   C1047     1.0  0.2221086081072816  0.5393560403533768  0.6557618704094444  1.0000
  C   C1048     1.0  0.19932493711476695  0.5127269244069746  0.6532133867265106  1.0000
  C   C1049     1.0  0.17881216524853327  0.5096621026738177  0.6397963696898893  1.0000
  C   C1050     1.0  0.18101332493118508  0.5312642749422019  0.6282807723518786  1.0000
  C   C1051     1.0  0.20433152946165803  0.5568760557980004  0.6301363009877721  1.0000
  C   C1052     1.0  0.22391795540567935  0.5607873524843299  0.6442432136672529  1.0000
  C   C1053     1.0  0.19492618232058082  0.9871612864683245  0.6669348144791611  1.0000
  C   C1054     1.0  0.18017684409631382  0.9920681055187055  0.6862503627771229  1.0000
  C   C1055     1.0  0.15257557162380989  0.9844045522850935  0.6851719228032526  1.0000
  C   C1056     1.0  0.14149129550278097  0.9915906970334776  0.7009752751012047  1.0000
  C   C1057     1.0  0.1569555814977099  0.5059767504207967  0.7177484585245952  1.0000
  C   C1058     1.0  0.18419479440332154  0.5135221807635416  0.718568378845155  1.0000
  C   C1059     1.0  0.1957376392366454  0.5082176517606385  0.7027436107179343  1.0000
  C   C1060     1.0  0.1852813346486899  0.9560577299558939  0.6353938870731523  1.0000
  C   C1061     1.0  0.1723866027390879  0.9313209712608574  0.6252305463832293  1.0000
  C   C1062     1.0  0.15294287098078296  0.9080196778687564  0.6354168326045112  1.0000
  C   C1063     1.0  0.14772658671402275  0.910553736596376  0.6559943851272151  1.0000
  C   C1064     1.0  0.16176622347578218  0.9351707894204624  0.6658150725488445  1.0000
  C   C1065     1.0  0.17966517831089793  0.9584596997643483  0.6555936031794788  1.0000
  C   C1066     1.0  0.134560315766372  0.8811055298267652  0.6224510776846155  1.0000
  C   C1067     1.0  0.07975093974086091  0.9094360560724203  0.597243116933676  1.0000
  C   C1068     1.0  0.10300631044409998  0.9142074857557675  0.5867570091026371  1.0000
  C   C1069     1.0  0.1192370576893628  0.9036893793626487  0.5937936387193808  1.0000
  C   C1070     1.0  0.11332234937789727  0.8890670480232193  0.6119879153849355  1.0000
  C   C1071     1.0  0.09040073647567705  0.8851553510564134  0.6224740232159744  1.0000
  C   C1072     1.0  0.07447211850698883  0.8957598955212992  0.6154817549598578  1.0000
  C   C1073     1.0  0.11981604035877746  0.8527348453979  0.6348126002787255  1.0000
  C   C1074     1.0  0.13430983286611425  0.847495786291772  0.6498052104686617  1.0000
  C   C1075     1.0  0.12430294149928948  0.82175525332521  0.6583654233676397  1.0000
  C   C1076     1.0  0.09953391201043155  0.8004699373979474  0.6517586400383535  1.0000
  C   C1077     1.0  0.0848452015628821  0.8050752401726043  0.6365426933431902  1.0000
  C   C1078     1.0  0.0948065900060534  0.8307541656661092  0.6280620249529233  1.0000
  C   C1079     1.0  0.13573721064531613  0.855073240445967  0.5902921506340055  1.0000
  C   C1080     1.0  0.14637624009492864  0.8413791027927895  0.5799513645015734  1.0000
  C   C1081     1.0  0.1724568371327046  0.8467603716936783  0.5839805998082044  1.0000
  C   C1082     1.0  0.1887281678293095  0.8674324692687194  0.5971681615312368  1.0000
  C   C1083     1.0  0.1778348260898647  0.8800191560348791  0.6084650114702921  1.0000
  C   C1084     1.0  0.15050394131369702  0.873195885619364  0.6059761861688914  1.0000
  H   H765      1.0  0.23712357241586218  0.5435189635076595  0.6677180219495465  1.0000
  H   H766      1.0  0.15951504561071425  0.9906139027707394  0.6390284592404095  1.0000
  H   H767      1.0  0.16411042642116266  0.5271204524389662  0.618521273013873  1.0000
  H   H768      1.0  0.24220236098140208  0.5803519621133786  0.6462348857892096  1.0000
  H   H769      1.0  0.1403833290444265  0.9737140147997049  0.6720027175053076  1.0000
  H   H770      1.0  0.11998588355816647  0.9868596022896892  0.6999213103607838  1.0000
  H   H771      1.0  0.1971736325164659  0.5240830768250154  0.7312572576866527  1.0000
  H   H772      1.0  0.21806312293152405  0.5163341673692077  0.7031030907092245  1.0000
  H   H773      1.0  0.1999081501544513  0.9738599760460986  0.6275572232630264  1.0000
  H   H774      1.0  0.1757298465266981  0.9301975202738774  0.609491441573082  1.0000
  H   H775      1.0  0.13205314773093457  0.8937538300771756  0.6644031575192241  1.0000
  H   H776      1.0  0.15714115940464835  0.9367837403934384  0.6815434694443576  1.0000
  H   H777      1.0  0.10846174496517645  0.9253606315321714  0.572472650980647  1.0000
  H   H778      1.0  0.13749771729915208  0.9076503872960596  0.5849718467629114  1.0000
  H   H779      1.0  0.0856267785367668  0.8749691594585617  0.6369817178431918  1.0000
  H   H780      1.0  0.05741774294483188  0.8927677732245597  0.6244228636793944  1.0000
  H   H781      1.0  0.15416536409471862  0.8635804885877372  0.6555140586707678  1.0000
  H   H782      1.0  0.1359440552371832  0.8182458976144439  0.6699054959390999  1.0000
  H   H783      1.0  0.06595040811427098  0.7886776332024791  0.6306059195295852  1.0000
  H   H784      1.0  0.08310132917491331  0.832826894125914  0.6156943835504507  1.0000
  H   H785      1.0  0.11402786188814103  0.848957584192792  0.5878721619266819  1.0000
  H   H786      1.0  0.13327912052416782  0.8250788298555424  0.5694453705433566  1.0000
  H   H787      1.0  0.20988252945679708  0.8729217042477979  0.6003315854545902  1.0000
  H   H788      1.0  0.1905975003873363  0.8941820360091379  0.620344677905864  1.0000
  C   C1085     1.0  0.2852401300981239  0.7181878491894187  0.5111606614874494  1.0000
  C   C1086     1.0  0.26270024683023585  0.7065353483101451  0.4984962578794011  1.0000
  C   C1087     1.0  0.23741270511465246  0.6871343283131026  0.5061279416093873  1.0000
  C   C1088     1.0  0.23510410189238112  0.6778501127217037  0.5263353062261669  1.0000
  C   C1089     1.0  0.2574751706064764  0.6929637760861719  0.5390150068551208  1.0000
  C   C1090     1.0  0.28194018954214656  0.712864762402684  0.5315240557174697  1.0000
  H   H789      1.0  0.2649823246855336  0.7108268028344403  0.4822691781023536  1.0000
  H   H790      1.0  0.2192494400696381  0.6779278053047595  0.49607320976789626  1.0000
  H   H791      1.0  0.2560869503415907  0.6882940272410902  0.5548566017053379  1.0000
  H   H792      1.0  0.29892846661447303  0.7225919764931374  0.5423619950293459  1.0000
  C   C1091     1.0  0.2333419576955798  0.6302990426712342  0.552597231717527  1.0000
  C   C1092     1.0  0.21082633257559233  0.6337628484418278  0.5510507029039342  1.0000
  C   C1093     1.0  0.18849202010950653  0.6175921610230528  0.5632577255868938  1.0000
  C   C1094     1.0  0.18884565586602828  0.599769374160102  0.5774334748604515  1.0000
  C   C1095     1.0  0.21253465925700563  0.598290035830877  0.5800783297750928  1.0000
  C   C1096     1.0  0.23442915709082107  0.6136651125951259  0.5674888815694837  1.0000
  C   C1097     1.0  0.20734715198762385  0.650745703468377  0.5331654260606798  1.0000
  C   C1098     1.0  0.19391106178828896  0.626461842151625  0.5166813563324122  1.0000
  C   C1099     1.0  0.16578040482072226  0.6083151796546773  0.5141818231163774  1.0000
  C   C1100     1.0  0.15582366437137388  0.5866724205577178  0.5004252122156433  1.0000
  C   C1101     1.0  0.1738613624483237  0.5815286440678776  0.4896836441354747  1.0000
  C   C1102     1.0  0.20178782749945837  0.5988616297926718  0.49234073666684086  1.0000
  C   C1103     1.0  0.2116150224665673  0.6208420725984694  0.5055527736233227  1.0000
  C   C1104     1.0  0.19573249703644133  0.6783234210163274  0.5577844515067396  1.0000
  C   C1105     1.0  0.18176824251424742  0.6904601777300169  0.5645487941513573  1.0000
  C   C1106     1.0  0.1601888562464571  0.6889764817268285  0.5529918948569009  1.0000
  C   C1107     1.0  0.15520055345158357  0.6771187959104503  0.5335662080084161  1.0000
  C   C1108     1.0  0.169994744864631  0.6649791519538035  0.527136870121639  1.0000
  C   C1109     1.0  0.18957046590125903  0.6641821942480455  0.5394647392697561  1.0000
  C   C1110     1.0  0.1394175263333146  0.696576530413066  0.5636202649823653  1.0000
  C   C1111     1.0  0.09888321167604301  0.6267713934627196  0.6052908796323041  1.0000
  C   C1112     1.0  0.11605577558136779  0.6523208260720781  0.6130984791027085  1.0000
  C   C1113     1.0  0.1306239558346315  0.6749719362915448  0.6004922041741032  1.0000
  C   C1114     1.0  0.12617729881232204  0.6720869291604175  0.5795215182141157  1.0000
  C   C1115     1.0  0.10867209049319995  0.645942627277723  0.572185066987615  1.0000
  C   C1116     1.0  0.09558590601490582  0.623469034598628  0.5846353123029797  1.0000
  C   C1117     1.0  0.1180821795730823  0.6994960502113332  0.5490467931652525  1.0000
  C   C1118     1.0  0.12747214728037812  0.7165695722000174  0.5319844960467394  1.0000
  C   C1119     1.0  0.11076129247941663  0.7244190420942929  0.5224131500658771  1.0000
  C   C1120     1.0  0.08423357541968898  0.7146325271892137  0.5289342700780899  1.0000
  C   C1121     1.0  0.07382587456745517  0.6956377228492621  0.5444209740432888  1.0000
  C   C1122     1.0  0.09046782310385272  0.6879729618047962  0.5546837453691009  1.0000
  C   C1123     1.0  0.14223460997342105  0.7348516932045688  0.5878507460974135  1.0000
  C   C1124     1.0  0.15343299111524655  0.761546335890653  0.5944605888308809  1.0000
  C   C1125     1.0  0.17782865329617567  0.7818039791350873  0.5862965687733676  1.0000
  C   C1126     1.0  0.19089520799488122  0.7744705898924957  0.5718255869963248  1.0000
  C   C1127     1.0  0.17991287894412836  0.7475749175241537  0.5656593578691304  1.0000
  C   C1128     1.0  0.1552454515194419  0.7269856798505948  0.573447071212357  1.0000
  H   H793      1.0  0.2506977508655503  0.6409563506199575  0.5421111238864881  1.0000
  H   H794      1.0  0.16928840552467522  0.6178651433004643  0.5615903503081437  1.0000
  H   H795      1.0  0.17109437642762512  0.5872327877968772  0.586723355656644  1.0000
  H   H796      1.0  0.2532450228172276  0.6127022523521242  0.569127192508513  1.0000
  H   H797      1.0  0.15137795298121484  0.6107013990064466  0.5236980998219782  1.0000
  H   H798      1.0  0.13375653133644672  0.5724041914606752  0.49977814823132094  1.0000
  H   H799      1.0  0.2165125088655791  0.5955940420232528  0.4851817308828493  1.0000
  H   H800      1.0  0.23392564343829328  0.6329487773687553  0.5073471141755924  1.0000
  H   H801      1.0  0.21189123574252153  0.6799304643479154  0.5679263763673944  1.0000
  H   H802      1.0  0.18695568699265344  0.7001358185185079  0.5793563103883314  1.0000
  H   H803      1.0  0.13852120525194114  0.6750388424163828  0.5242304361495057  1.0000
  H   H804      1.0  0.16661230878753872  0.6565490145110021  0.5119209234264759  1.0000
  H   H805      1.0  0.11800371723934486  0.6550807179716985  0.6295779597247044  1.0000
  H   H806      1.0  0.14519538758513933  0.694763725928648  0.6071861805225535  1.0000
  H   H807      1.0  0.10489378169140634  0.6427778371081009  0.5557728932576053  1.0000
  H   H808      1.0  0.08224277370906721  0.6036581158236586  0.5781111328865858  1.0000
  H   H809      1.0  0.14813504564721877  0.725730465659264  0.5268707019578753  1.0000
  H   H810      1.0  0.11807864137768098  0.7393508849100721  0.5101663551285618  1.0000
  H   H811      1.0  0.052987325426780876  0.6882899238961853  0.5490605604840679  1.0000
  H   H812      1.0  0.08162576090466814  0.6739798341248093  0.5674445202088568  1.0000
  H   H813      1.0  0.12248484940774361  0.7199097990151585  0.5934616933657215  1.0000
  H   H814      1.0  0.14210067318944267  0.7671125485412504  0.6051807410817811  1.0000
  H   H815      1.0  0.20883495468177063  0.7895022599126488  0.5639078489753974  1.0000
  H   H816      1.0  0.19004564713713004  0.7433559711780342  0.5532963055729295  1.0000
  C   C1129     1.0  0.20690346178163269  0.5807384026623127  0.6168477789267605  1.0000
  C   C1130     1.0  0.21238156122136084  0.576403924885143  0.594290791898825  1.0000
  H   H817      1.0  0.1869704020120941  0.5802623185284038  0.6170680560278065  1.0000
  H   H818      1.0  0.22343470218851796  0.6018386912979143  0.6221573748832212  1.0000
  H   H819      1.0  0.19616828277431636  0.5562465902955074  0.5887456218204125  1.0000
  H   H820      1.0  0.23252870652498708  0.5773921063278786  0.5928421640190299  1.0000
  C   C1131     1.0  0.18838624039841248  0.8122791601666416  0.5913507044806983  1.0000
  C   C1132     1.0  0.18263499243902562  0.828678799095269  0.5750731445346612  1.0000
  H   H821      1.0  0.17993908886723278  0.8142693915072472  0.6061107999528639  1.0000
  H   H822      1.0  0.21070763863564895  0.8215303376496783  0.5945952026148534  1.0000
  H   H823      1.0  0.16833977474567174  0.8151900682914842  0.5628003446618055  1.0000
  H   H824      1.0  0.2020835255139632  0.8423972208306566  0.566304892151362  1.0000
  C   C1133     1.0  0.17687841597340714  0.5411448729802971  0.4726228767190522  1.0000
  C   C1134     1.0  0.15973942733628482  0.5551598058084372  0.4765955130483312  1.0000
  H   H825      1.0  0.18502666459309203  0.53953628372461  0.48800097183581864  1.0000
  H   H826      1.0  0.1621517129581808  0.5195289847789385  0.46822957231485907  1.0000
  H   H827      1.0  0.1400763692283195  0.5396592072942624  0.4836734446215212  1.0000
  H   H828      1.0  0.15277139220842034  0.5597842354565454  0.46240293705177726  1.0000
  C   C1135     1.0  0.03256918233691038  0.8934842154847155  0.5788958700590617  1.0000
  C   C1136     1.0  0.06050244276104028  0.918222507642245  0.5869176278221496  1.0000
  H   H829      1.0  0.020627115803949346  0.9032845361740004  0.5735908632088732  1.0000
  H   H830      1.0  0.020443295775397583  0.8806431010261125  0.5920084763796547  1.0000
  H   H831      1.0  0.07105575942592189  0.9331849054000466  0.5744245508482482  1.0000
  H   H832      1.0  0.05497823747257829  0.929303696425397  0.598266487632285  1.0000
  C   C1137     1.0  0.11351848246120981  0.9173982140540318  0.4558558121040241  1.0000
  C   C1138     1.0  0.13093399220780946  0.9468014290332398  0.46400453514063156  1.0000
  H   H833      1.0  0.12696572744351495  0.9096543094393126  0.4506181121458217  1.0000
  H   H834      1.0  0.101737410440208  0.9169471152371487  0.4416464093844735  1.0000
  H   H835      1.0  0.1174669728320089  0.9560240310239358  0.465723920290462  1.0000
  H   H836      1.0  0.14126816813115306  0.9476562034574673  0.47866825938108964  1.0000
  C   C1139     1.0  0.40636782098935365  0.6516304969603235  0.42951128269977146  1.0000
  C   C1140     1.0  0.38354405750434456  0.625943089885044  0.4411951472677474  1.0000
  H   H837      1.0  0.40245288888462205  0.649751424903753  0.4129507278669739  1.0000
  H   H838      1.0  0.42551059638805344  0.6511423559376494  0.430820707689322  1.0000
  H   H839      1.0  0.38630144690317453  0.628345162318701  0.4578949049907894  1.0000
  H   H840      1.0  0.3866541576405101  0.6084053395663744  0.43690586260571485  1.0000
  C   C1141     1.0  0.07341386105767682  0.7522367454457514  0.5359020631007569  1.0000
  C   C1142     1.0  0.06787678089816084  0.7283380276675011  0.5213913090693587  1.0000
  H   H841      1.0  0.06565365722315361  0.7440015485420122  0.5513811185555028  1.0000
  H   H842      1.0  0.09570720409860525  0.766196489655516  0.5379411559875225  1.0000
  H   H843      1.0  0.0732926313322266  0.7349517196134402  0.5052774272470153  1.0000
  H   H844      1.0  0.04575624058188599  0.7132264938839749  0.521063952821971  1.0000
  C   C1143     1.0  0.31446169788095457  0.7355119536770615  0.5025193743776698  1.0000
  C   C1144     1.0  0.3231966910745141  0.715121000260663  0.4956341852678951  1.0000
  H   H845      1.0  0.3292444093753479  0.7504165413176029  0.5137443283184668  1.0000
  H   H846      1.0  0.31455180411867106  0.7485440903720931  0.4891926097643935  1.0000
  H   H847      1.0  0.30851248016088406  0.7012257703414536  0.48397785533755006  1.0000
  H   H848      1.0  0.321748008084815  0.7009598416687424  0.5080599553498103  1.0000
  C   C1145     1.0  0.053295802164308834  0.5967230232038816  0.6231379139232932  1.0000
  C   C1146     1.0  0.08254144181384925  0.6018669087226822  0.6189465301950589  1.0000
  H   H849      1.0  0.04058140828342804  0.5738293240387393  0.6242270618117979  1.0000
  H   H850      1.0  0.04530572101144333  0.6019654519771086  0.6094057782560086  1.0000
  H   H851      1.0  0.08191590671430063  0.5836491884798235  0.6117554006671647  1.0000
  H   H852      1.0  0.09294194993892756  0.6035928210117615  0.6338580661741934  1.0000
  C   C1147     1.0  0.06214838606967154  0.7596340072752352  0.6733855681952066  1.0000
  C   C1148     1.0  0.08794715420207809  0.7708005423354125  0.659971610562766  1.0000
  H   H853      1.0  0.04500924445952826  0.7594247029475784  0.6652536718815957  1.0000
  H   H854      1.0  0.06462131454021434  0.7721865175303673  0.6870442781621426  1.0000
  H   H855      1.0  0.08309174774489737  0.757100776322046  0.6466662617787577  1.0000
  H   H856      1.0  0.10433863264684892  0.7696424844539363  0.6684308631237645  1.0000
  C   C1149     1.0  0.31525779793688874  0.5299522638074248  0.699306370120364  1.0000
  C   C1150     1.0  0.30206094625626323  0.5016987962112943  0.6891797422806152  1.0000
  H   H857      1.0  0.30501912803339876  0.5280809762718699  0.7137911192162222  1.0000
  H   H858      1.0  0.3104351410693938  0.5440583201715669  0.6901403951935099  1.0000
  H   H859      1.0  0.3147119961426362  0.5027214261696623  0.6758468588589763  1.0000
  H   H860      1.0  0.3022224553281082  0.9863409830737003  0.699662790707473  1.0000
  C   C1151     1.0  0.14525627322069887  0.5149311330622939  0.7349392506187186  1.0000
  C   C1152     1.0  0.15712138695069677  0.5459406474246635  0.7375718679166351  1.0000
  H   H861      1.0  0.12337759348629042  0.5070965817636779  0.7320878859218466  1.0000
  H   H862      1.0  0.14627623997053418  0.5055990541546296  0.749732999536877  1.0000
  H   H863      1.0  0.16139148142641396  0.556284804666211  0.72255631219534  1.0000
  H   H864      1.0  0.1414667138078661  0.5500523589054553  0.7444081065595107  1.0000
  C   C1153     1.0  0.11232257097541913  0.6351111010055268  0.7516772508940253  1.0000
  C   C1154     1.0  0.10324853073924728  0.6250713538047432  0.7735275155561054  1.0000
  H   H865      1.0  0.11645940306031959  0.6201096088085789  0.7436707901518432  1.0000
  H   H866      1.0  0.1315996656911724  0.6543956731536474  0.7523824435577905  1.0000
  H   H867      1.0  0.09113918668844873  0.6341470719078802  0.7789778441049007  1.0000
  H   H868      1.0  0.08885011122212098  0.6028601714009952  0.7731450900334563  1.0000
  C   C1155     1.0  0.3876546993153035  0.6646945809820838  0.7696328940334468  1.0000
  C   C1156     1.0  0.36609253822868926  0.6674599209582772  0.7566610203051886  1.0000
  H   H869      1.0  0.3800286557400769  0.6585934315647581  0.7855708601153716  1.0000
  H   H870      1.0  0.4063144189834007  0.6852133643998699  0.7716536304951247  1.0000
  H   H871      1.0  0.36732549318506047  0.6628426523045143  0.740433940528141  1.0000
  H   H872      1.0  0.37233051846883897  0.6893965605509458  0.7562204661030968  1.0000
  C   C1157     1.0  0.3784921287774631  0.8954647414652274  0.09392355539241508  1.0000
  C   C1158     1.0  0.39030515874101734  0.9257738856407379  0.08749375859501088  1.0000
  H   H873      1.0  0.35748845949263514  0.8878474482930305  0.0998820509757065  1.0000
  H   H874      1.0  0.3905338218118969  0.894529967709933  0.10675362573687497  1.0000
  H   H875      1.0  0.4121751607112485  0.9334343325337867  0.08321043977113166  1.0000
  H   H876      1.0  0.38072571732066146  0.9274840750269189  0.07296541298957077  1.0000
  C   C1159     1.0  0.34895258635002435  0.6463468219710284  0.10000228556002742  1.0000
  C   C1160     1.0  0.3513052782359624  0.6235188085863256  0.08954432424745547  1.0000
  H   H877      1.0  0.34770180838070514  0.6432216135178787  0.11678602392784294  1.0000
  H   H878      1.0  0.3289014347851287  0.6439514488405922  0.0950091849661114  1.0000
  H   H879      1.0  0.3550756298167592  0.6273747842970939  0.0732681410332998  1.0000
  H   H880      1.0  0.33126195904905215  0.6050162053995247  0.09070246170024607  1.0000
  C   C1161     1.0  0.02567910861650696  0.860504520541792  0.13220572694147364  1.0000
  C   C1162     1.0  0.4946088366705496  0.8507319536282657  0.13323215704426397  1.0000
  H   H881      1.0  0.03797476607212957  0.8830631583677742  0.13213061856882538  1.0000
  H   H882      1.0  0.02873120339074301  0.8536435034824371  0.11716493113568374  1.0000
  H   H883      1.0  0.49204842482426703  0.8686896874275785  0.1298304055351954  1.0000
  H   H884      1.0  0.48781180002637203  0.8457473894532509  0.14947927591869817  1.0000
  C   C1163     1.0  0.01403841633570636  0.6957332921137614  0.18840881739249718  1.0000
  C   C1164     1.0  0.4867809062918225  0.6886498166160946  0.17668212116598453  1.0000
  H   H885      1.0  0.02837781317496356  0.6933288375170087  0.1780970955997863  1.0000
  H   H886      1.0  0.00906671145455369  0.6811510891888881  0.20081623104932528  1.0000
  H   H887      1.0  0.4902233623708937  0.7054886505051852  0.16592831546909123  1.0000
  H   H888      1.0  0.4719885359201587  0.687861730002737  0.18800803544476088  1.0000
  C   C1165     1.0  0.2516705607592704  0.9064488388919758  0.21076847285074599  1.0000
  C   C1166     1.0  0.25205703875220437  0.9151223894156935  0.18867651525835155  1.0000
  H   H889      1.0  0.2666795863679431  0.9239796597153298  0.22006141305111962  1.0000
  H   H890      1.0  0.25774232172439215  0.8904836965737695  0.21211002158419917  1.0000
  H   H891      1.0  0.23889234794540543  0.8974461512058356  0.17818581832104088  1.0000
  H   H892      1.0  0.24399221461058618  0.9296746439960826  0.18743286745869664  1.0000
  C   C1167     1.0  0.11140485351240362  0.9313138854001553  0.32400161070296957  1.0000
  C   C1168     1.0  0.11752253195978757  0.9332069762613757  0.30081132700952684  1.0000
  H   H893      1.0  0.10120146502483847  0.943969775002285  0.32615849065071056  1.0000
  H   H894      1.0  0.09528824303432332  0.9099385997573964  0.32807673707231855  1.0000
  H   H895      1.0  0.13230220134075116  0.9545099171880305  0.29643943843460213  1.0000
  H   H896      1.0  0.09847034963454311  0.9296826360519832  0.293084801749924  1.0000
  C   C1169     1.0  0.4587714058656554  0.8653230305886259  0.3946860849052519  1.0000
  C   C1170     1.0  0.47767911081997877  0.8533579762019313  0.4008645516491711  1.0000
  H   H897      1.0  0.44742025173508043  0.8660778412810656  0.408321849340829  1.0000
  H   H898      1.0  0.4717770584541375  0.8879147172415001  0.3913130917954868  1.0000
  H   H899      1.0  0.49649242842682806  0.8699550941351997  0.40851153240006294  1.0000
  H   H900      1.0  0.4836830257724859  0.8472944070365444  0.38704828236690364  1.0000
  C   C1171     1.0  0.38897052860457243  0.9413217541299022  0.2417174055476941  1.0000
  C   C1172     1.0  0.3681547037541778  0.9431429058980121  0.2561256695390224  1.0000
  H   H901      1.0  0.4105086871476999  0.9533372321547535  0.24837007993969817  1.0000
  H   H902      1.0  0.38438272347560276  0.9199618153322806  0.23975173836127767  1.0000
  H   H903      1.0  0.3518782192824607  0.943794622565145  0.2473558874536327  1.0000
  H   H904      1.0  0.3780438388404572  0.9633213016998696  0.26412907087702314  1.0000
  C   C1173     1.0  0.4544217557697629  0.8244202103060932  0.2651876247237159  1.0000
  C   C1174     1.0  0.4468437679135905  0.8076396859226199  0.24529690843968982  1.0000
  H   H905      1.0  0.46586349118457054  0.8465822867668916  0.2620272602045436  1.0000
  H   H906      1.0  0.46952880190176416  0.8205806056506237  0.27405377804081316  1.0000
  H   H907      1.0  0.4340566251423758  0.7860294467180926  0.2489727825633932  1.0000
  H   H908      1.0  0.43388462211132994  0.8121134782289542  0.2353048943839136  1.0000
  C   C1175     1.0  0.18677351100270026  0.7769551611351386  0.2901232985025292  1.0000
  C   C1176     1.0  0.16485513424741938  0.7812716348698082  0.3014920444398423  1.0000
  H   H909      1.0  0.18384268730578782  0.7777394904892767  0.2736300505617181  1.0000
  H   H910      1.0  0.18184968072181212  0.7556341534368292  0.29315669774818204  1.0000
  H   H911      1.0  0.14565703856058526  0.7612641482843427  0.30389520642416934  1.0000
  H   H912      1.0  0.1711933590735302  0.7888102778480782  0.3173183422691535  1.0000
  C   C1177     1.0  0.29341447503801277  0.698323215608253  0.3576183438459179  1.0000
  C   C1178     1.0  0.3102904882118945  0.6931511550198908  0.37410394327627616  1.0000
  H   H913      1.0  0.2874615559813206  0.6829745267702563  0.3453333063563375  1.0000
  H   H914      1.0  0.2740975708181174  0.6961816871334813  0.36375397893130035  1.0000
  H   H915      1.0  0.317145259087908  0.7091315769688269  0.3862987283425114  1.0000
  H   H916      1.0  0.32989344784810876  0.6969016112055904  0.36738243229019524  1.0000
  C   C1179     1.0  0.2585553313273005  0.8990579070983151  0.3790081681787285  1.0000
  C   C1180     1.0  0.2300058978720007  0.8924984443960872  0.3701389554574501  1.0000
  H   H917      1.0  0.25612192685134627  0.8900267799470949  0.3945224067815581  1.0000
  H   H918      1.0  0.2717409644864183  0.9214740929084314  0.38190389423622767  1.0000
  H   H919      1.0  0.22998094163106078  0.8919392764485337  0.35329540573789225  1.0000
  H   H920      1.0  0.21373561933005106  0.8713614555272569  0.37397391859857554  1.0000
  C   C1181     1.0  0.4478938902210489  0.5068949513917334  0.7963093687913588  1.0000
  C   C1182     1.0  0.469535166463598  0.535593798199687  0.7884237545143342  1.0000
  H   H921      1.0  0.4580789871421238  0.994852693679007  0.7998995795979889  1.0000
  H   H922      1.0  0.43478893735613583  0.9952174922300487  0.7835516533557841  1.0000
  H   H923      1.0  0.4817942110140713  0.5478953311925797  0.8018698358906772  1.0000
  H   H924      1.0  0.48444758084839723  0.5328980623078706  0.7791017499742391  1.0000
  C   C1183     1.0  0.3013889657610096  0.5418199322682874  0.8291092410179286  1.0000
  C   C1184     1.0  0.2839122911621097  0.5131807685135453  0.8378958498263149  1.0000
  H   H925      1.0  0.3141487012542234  0.541415159883873  0.8164769611537829  1.0000
  H   H926      1.0  0.3165007669592732  0.5552987455835249  0.8411740014064634  1.0000
  H   H927      1.0  0.270821282984946  0.5141060233336582  0.8500967537009124  1.0000
  H   H928      1.0  0.2699307409966907  0.9983200374437244  0.8256857677391737  1.0000
  C   C1185     1.0  0.2557111022974207  0.7817113531107592  0.8593912236033767  1.0000
  C   C1186     1.0  0.27190737992157765  0.7720471177786961  0.8461975430719822  1.0000
  H   H929      1.0  0.23985291335933867  0.7820368016208703  0.8495445312462071  1.0000
  H   H930      1.0  0.24430300113439218  0.7666295535641814  0.871794048153933  1.0000
  H   H931      1.0  0.2897881153196307  0.7742028333016192  0.8549107261800198  1.0000
  H   H932      1.0  0.28108681977638844  0.7853469008429326  0.8330910555597513  1.0000
  C   C1187     1.0  0.4143240730643537  0.872304872790029  0.9590130722534727  1.0000
  C   C1188     1.0  0.4118438536810064  0.8980507981471464  0.9549287676715801  1.0000
  H   H933      1.0  0.43629831254250057  0.8788604619719825  0.9578382610478946  1.0000
  H   H934      1.0  0.40331006797525604  0.8567245787096973  0.9468886534834049  1.0000
  H   H935      1.0  0.4302637407062553  0.9127786900221242  0.9458224511262592  1.0000
  H   H936      1.0  0.4133700640438305  0.9088891433648031  0.9695726057848603  1.0000
  C   C1189     1.0  0.48855031866168525  0.5572899758034622  0.07383657833016546  1.0000
  C   C1190     1.0  0.016989560812364083  0.5813019259696591  0.06743967012770909  1.0000
  H   H937      1.0  0.4921927652257943  0.5413681862597223  0.08077438919185675  1.0000
  H   H938      1.0  0.47643353238024017  0.5470452989051751  0.060114844637096876  1.0000
  H   H939      1.0  0.027578103560240527  0.595087526666925  0.08062998531450444  1.0000
  H   H940      1.0  0.029491507883205075  0.5714995134897899  0.06435028378554042  1.0000
  C   C1191     1.0  0.11795948698940131  0.6183295449831947  0.9134310093578787  1.0000
  C   C1192     1.0  0.14343125298761855  0.614952163843259  0.9105719961505538  1.0000
  H   H941      1.0  0.10155761125062138  0.5990395179856907  0.9203192578718347  1.0000
  H   H942      1.0  0.10946918022735795  0.6202402655033687  0.898898839497212  1.0000
  H   H943      1.0  0.13716711100912146  0.5929008404184029  0.9131311877481217  1.0000
  H   H944      1.0  0.158682769853194  0.6252885258548747  0.9232302809502397  1.0000
  C   C1193     1.0  0.4543702845240558  0.5863853338918523  0.9180415314589365  1.0000
  C   C1194     1.0  0.4476817367560839  0.5807967344184063  0.9411507409415776  1.0000
  H   H945      1.0  0.45676866444240016  0.6066999651386147  0.9143289444850589  1.0000
  H   H946      1.0  0.47439107109029127  0.5882091090075544  0.9149943648944685  1.0000
  H   H947      1.0  0.4421822902798848  0.5596118053334368  0.944800610129741  1.0000
  H   H948      1.0  0.4285549040745615  0.581369251785691  0.9434667099067406  1.0000
  C   C1195     1.0  0.18724117415382677  0.8285448403994382  0.9299502622342302  1.0000
  C   C1196     1.0  0.21141147521943734  0.852413276139328  0.9415193991454113  1.0000
  H   H949      1.0  0.19351412938029028  0.8281391455539528  0.9141622069571839  1.0000
  H   H950      1.0  0.17025664685726022  0.8329364589293841  0.9285750600547839  1.0000
  H   H951      1.0  0.21338217574993434  0.8491956157706857  0.9578765036001595  1.0000
  H   H952      1.0  0.2081124105510745  0.8706506039066549  0.9414260873178849  1.0000
  C   C1197     1.0  0.024781106385863214  0.7695698165181716  0.03449080491751517  1.0000
  C   C1198     1.0  0.021380654272290998  0.7563870720436572  0.013288996268659745  1.0000
  H   H953      1.0  0.036590379689145434  0.7644021649690483  0.04558787576353832  1.0000
  H   H954      1.0  0.03869222244804078  0.7919349502443069  0.03256980503214411  1.0000
  H   H955      1.0  0.03756767168709053  0.7711678369234588  0.0024000126490608684  1.0000
  H   H956      1.0  0.0018571392647651701  0.7538794847965488  0.006573039952208148  1.0000
  C   C1199     1.0  0.24546721884190498  0.7558047884856314  0.013109944638955425  1.0000
  C   C1200     1.0  0.25133545731068335  0.7340394609220542  0.022925645231769508  1.0000
  H   H957      1.0  0.246712761278867  0.7702516607536529  0.02512000288073017  1.0000
  H   H958      1.0  0.2616965463908993  0.7692648004910073  0.0019701663616031873  1.0000
  H   H959      1.0  0.24475398235344764  0.7162855205048859  0.012812876492961587  1.0000
  H   H960      1.0  0.23870420264640732  0.7256688218264999  0.036950718849403374  1.0000
  C   C1201     1.0  0.5227944870209925  0.22994815970632504  0.012373530755521372  1.0000
  C   C1202     1.0  0.5340397910975045  0.22056465095774583  0.02732935161017867  1.0000
  C   C1203     1.0  0.533695056673526  0.19606739311424043  0.024071239127417227  1.0000
  C   C1204     1.0  0.5242727215193995  0.18159791817017656  0.005846431459174628  1.0000
  C   C1205     1.0  0.51505798684542  0.19247754326554034  0.9905631778720253  1.0000
  C   C1206     1.0  0.5135495610040673  0.215904658080072  0.9941610371891081  1.0000
  H   H961      1.0  0.5438466716141035  0.231330089368007  0.04120986838025117  1.0000
  H   H962      1.0  0.543822758518434  0.18945287700301208  0.03557444587849372  1.0000
  H   H963      1.0  0.508419957670772  0.1822039823243751  0.9760845475845294  1.0000
  H   H964      1.0  0.5047836551808792  0.22295796006547738  0.9827203952535369  1.0000
  C   C1207     1.0  0.9796671018682884  0.12691568858674498  0.9867771651977989  1.0000
  C   C1208     1.0  0.5073632893555542  0.13488432991029875  0.9852994729782826  1.0000
  C   C1209     1.0  0.5150895832754605  0.12352752584868189  0.9696766255270207  1.0000
  C   C1210     1.0  0.9963581016028796  0.10517364321221027  0.9559949700287258  1.0000
  C   C1211     1.0  0.9693572376140646  0.09939165168168558  0.9566940438841285  1.0000
  C   C1212     1.0  0.9613413322719556  0.11063595227711522  0.9719772974712779  1.0000
  C   C1213     1.0  0.5297753293298956  0.1575641150816825  0.0005919047779756603  1.0000
  C   C1214     1.0  0.525530442366974  0.1365703184043071  0.018375852303708386  1.0000
  C   C1215     1.0  0.537957480445572  0.1204131287151559  0.01720272377042994  1.0000
  C   C1216     1.0  0.5344742776416546  0.10188508520137977  0.032242142844338344  1.0000
  C   C1217     1.0  0.518751551987209  0.0994881720261862  0.04901807973149186  1.0000
  C   C1218     1.0  0.5047490936837377  0.11392007760399629  0.049970931163724405  1.0000
  C   C1219     1.0  0.5072032600549946  0.13135700103765796  0.03424865307657375  1.0000
  C   C1220     1.0  0.5655797834746752  0.18628193585845768  0.9723138319312091  1.0000
  C   C1221     1.0  0.5921105082844987  0.20058022449155644  0.9646209601175993  1.0000
  C   C1222     1.0  0.6145910599120346  0.20349811359130018  0.9754971419817404  1.0000
  C   C1223     1.0  0.6103306173812905  0.19335278673971185  0.9954138632013066  1.0000
  C   C1224     1.0  0.5841176712151624  0.18047682893455277  0.00350598726056206  1.0000
  C   C1225     1.0  0.5609202836160986  0.1750377660580686  0.9916247911228993  1.0000
  C   C1226     1.0  0.6438302874014383  0.2157372458698017  0.964463400802268  1.0000
  C   C1227     1.0  0.6239616634259391  0.14282358800398323  0.9271662044293445  1.0000
  C   C1228     1.0  0.6217702718647965  0.16442651810321385  0.9191306793474415  1.0000
  C   C1229     1.0  0.6267953315109872  0.18684337217028812  0.9306049747290054  1.0000
  C   C1230     1.0  0.6362264850108423  0.1892064471652169  0.9504452108440418  1.0000
  C   C1231     1.0  0.6363511219587221  0.16657036965111652  0.9591400375269922  1.0000
  C   C1232     1.0  0.6308498928254365  0.14391430729320184  0.9473200294729532  1.0000
  C   C1233     1.0  0.6702550747046045  0.22459429208875223  0.9785901996089265  1.0000
  C   C1234     1.0  0.6744164690906445  0.23857753739444038  0.9967217584887665  1.0000
  C   C1235     1.0  0.6977505656301377  0.2481766994766567  0.008400236654343345  1.0000
  C   C1236     1.0  0.7182840477938238  0.24420479381063015  0.0017728347919163667  1.0000
  C   C1237     1.0  0.716278288069501  0.2320391292187786  0.9831349445200886  1.0000
  C   C1238     1.0  0.6924406717236429  0.22215264949482028  0.9715550996942737  1.0000
  C   C1239     1.0  0.6723554962158498  0.255322760950863  0.9378022230652622  1.0000
  C   C1240     1.0  0.6843368257772771  0.28229394301309046  0.9315273850896351  1.0000
  C   C1241     1.0  0.6764195907339406  0.29974496795886296  0.9394604201314685  1.0000
  C   C1242     1.0  0.656883641406145  0.28988648391590705  0.954532574830116  1.0000
  C   C1243     1.0  0.6463224271410283  0.2635155488875672  0.9622392139625406  1.0000
  C   C1244     1.0  0.6535304784951348  0.24552720207038553  0.9538885702499744  1.0000
  H   H965      1.0  0.9723186142704753  0.13498908632128837  0.9991830491525363  1.0000
  H   H966      1.0  0.5367119353571677  0.13004806178568418  0.9672336912883382  1.0000
  H   H967      1.0  0.5034490292261159  0.09677861123241971  0.9448220259590094  1.0000
  H   H968      1.0  0.9397196266446346  0.10525536875435208  0.9727849801751128  1.0000
  H   H969      1.0  0.5503192282353904  0.12144584906226458  0.004151521542793857  1.0000
  H   H970      1.0  0.5445739137713255  0.09032031511137124  0.03110909250583352  1.0000
  H   H971      1.0  0.9909688563811422  0.111157232505051  0.06245284131236454  1.0000
  H   H972      1.0  0.9954181730215736  0.14156130613536916  0.03545880040044463  1.0000
  H   H973      1.0  0.5487344649744647  0.1836315415868  0.962727188929441  1.0000
  H   H974      1.0  0.595067932136789  0.20831451034852194  0.9492413352987426  1.0000
  H   H975      1.0  0.6264627090540887  0.19416221166923023  0.0050433378616114855  1.0000
  H   H976      1.0  0.5815272414308726  0.17232250156286694  0.018762255051793058  1.0000
  H   H977      1.0  0.6170037093819453  0.16459621542679903  0.9032646092637747  1.0000
  H   H978      1.0  0.6253343994025347  0.2036973659699589  0.9233863105634805  1.0000
  H   H979      1.0  0.6421955267450044  0.16662649905219698  0.9749999888022967  1.0000
  H   H980      1.0  0.6317971265220145  0.1266230365180726  0.9535092041315065  1.0000
  H   H981      1.0  0.6583870973898529  0.24227362226867685  0.001890621852892238  1.0000
  H   H982      1.0  0.6985776385159354  0.25847151688714476  0.022596912252500323  1.0000
  H   H983      1.0  0.7338324730155119  0.23153371529666858  0.9767652650148448  1.0000
  H   H984      1.0  0.6921457203141856  0.21420606431740677  0.9568546626036414  1.0000
  H   H985      1.0  0.6801858387758886  0.24308720043310264  0.9311434298648953  1.0000
  H   H986      1.0  0.6985658417272194  0.2890374734433568  0.9190450160303677  1.0000
  H   H987      1.0  0.6516332231246853  0.30430493152007876  0.9617282934642815  1.0000
  H   H988      1.0  0.6304716048120782  0.25678727108665295  0.973724217258739  1.0000
  C   C1245     1.0  0.8030096345710228  0.002870390127153413  0.8468323694395795  1.0000
  C   C1246     1.0  0.8113119233571174  0.4875965434899417  0.8353014750806632  1.0000
  C   C1247     1.0  0.8324739364236206  0.48395925871348383  0.8413805111886936  1.0000
  C   C1248     1.0  0.847103711797407  0.49603530014389224  0.8590210356974524  1.0000
  C   C1249     1.0  0.8360647870400416  0.007754323651895128  0.8721688251661294  1.0000
  C   C1250     1.0  0.815342087048699  0.012247669269934014  0.8655345071992121  1.0000
  H   H989      1.0  0.8028082480150778  0.48088148479035914  0.8202002560422947  1.0000
  H   H990      1.0  0.8398941213974487  0.474423512846648  0.8306986014900584  1.0000
  H   H991      1.0  0.8455127844675904  0.015384707468928258  0.8870803611452637  1.0000
  H   H992      1.0  0.8096049883986232  0.02377685065360004  0.875368961939657  1.0000
  C   C1251     1.0  0.8998269094724356  0.04596854451184799  0.8764764662532487  1.0000
  C   C1252     1.0  0.894899650916131  0.01953990190491147  0.8797148455790418  1.0000
  C   C1253     1.0  0.9106988609312779  0.015666281581914396  0.8945590746661899  1.0000
  C   C1254     1.0  0.9305751708744041  0.0374735672584206  0.905263929896184  1.0000
  C   C1255     1.0  0.9331750203935184  0.06323675026873421  0.9035537229588972  1.0000
  C   C1256     1.0  0.9174353371924606  0.0673556477831665  0.8888685828891709  1.0000
  C   C1257     1.0  0.8742500031782182  0.49510602701599304  0.8651321955493853  1.0000
  C   C1258     1.0  0.8947813213427299  0.49976361437883865  0.8465524339570004  1.0000
  C   C1259     1.0  0.9125671464470928  0.48979761299861224  0.8475161462740762  1.0000
  C   C1260     1.0  0.9296273009270755  0.4925728244429575  0.8317953978890161  1.0000
  C   C1261     1.0  0.9300039343732559  0.006342641220324457  0.8141977050387942  1.0000
  C   C1262     1.0  0.9123492014333134  0.016934102061992393  0.8125639832060372  1.0000
  C   C1263     1.0  0.8958156666789923  0.014173662158276664  0.8287665877496351  1.0000
  C   C1264     1.0  0.8496291996407599  0.46178106678672487  0.8943311490546909  1.0000
  C   C1265     1.0  0.8357650922958669  0.43671988018259783  0.9033976933456563  1.0000
  C   C1266     1.0  0.8330650758022295  0.41399936726322  0.8937360949414489  1.0000
  C   C1267     1.0  0.8456473330750885  0.41718352954297866  0.8751823382846042  1.0000
  C   C1268     1.0  0.8571455409482136  0.44189399703336124  0.8652300964831834  1.0000
  C   C1269     1.0  0.8604836975734158  0.46519703668435813  0.8752725907079494  1.0000
  C   C1270     1.0  0.8180713895158912  0.385057499742792  0.9048891528839883  1.0000
  C   C1271     1.0  0.8861762783932714  0.392813911288362  0.9427018588614424  1.0000
  C   C1272     1.0  0.8675405196122776  0.3982854090765393  0.9516292002621638  1.0000
  C   C1273     1.0  0.8463820576688761  0.39735821422522843  0.9400202910966268  1.0000
  C   C1274     1.0  0.8426421316931706  0.38826115385554527  0.9195865305704389  1.0000
  C   C1275     1.0  0.8619406352111977  0.38290102978441365  0.9109146494188474  1.0000
  C   C1276     1.0  0.8840007303453186  0.3863190200828621  0.9225556823282867  1.0000
  C   C1277     1.0  0.8047973888809261  0.3590046473665917  0.8898062902707066  1.0000
  C   C1278     1.0  0.7920918786195932  0.3577233462615747  0.8710857960859868  1.0000
  C   C1279     1.0  0.7788054973498096  0.33342832832647806  0.8605354407671428  1.0000
  C   C1280     1.0  0.7750202454217526  0.3093991313605442  0.8691767278769224  1.0000
  C   C1281     1.0  0.7865652701276713  0.30978757569777293  0.8877182469170424  1.0000
  C   C1282     1.0  0.8017821107327118  0.33447230496469316  0.897375256214978  1.0000
  C   C1283     1.0  0.7815334987739309  0.3618088892603816  0.9331962900704758  1.0000
  C   C1284     1.0  0.755701680005752  0.3532271128998095  0.9409824737116119  1.0000
  C   C1285     1.0  0.7381991998006016  0.3603133582544962  0.9312780436488678  1.0000
  C   C1286     1.0  0.7467412059625581  0.37591741532353457  0.9136176330129314  1.0000
  C   C1287     1.0  0.7732057464250917  0.38636190162275713  0.9069328348770248  1.0000
  C   C1288     1.0  0.7909175548691025  0.37890494069189073  0.9162257750773984  1.0000
  H   H993      1.0  0.8894492774948836  0.0505474223710758  0.8640812902131455  1.0000
  H   H994      1.0  0.9095023756019212  0.4958409496565678  0.8965920487445929  1.0000
  H   H995      1.0  0.9423428617899254  0.033081590364355394  0.9169263786348916  1.0000
  H   H996      1.0  0.9205771626558639  0.08801172825045242  0.8865419060093737  1.0000
  H   H997      1.0  0.913640476081367  0.47947891045239577  0.8612957027061693  1.0000
  H   H998      1.0  0.9433273170363575  0.48409757915750096  0.8332730901085323  1.0000
  H   H999      1.0  0.9118883884959952  0.028236945478155875  0.7990352979168017  1.0000
  H   H1000     1.0  0.8826828367398916  0.02272426188267615  0.8266005295893505  1.0000
  H   H1001     1.0  0.8523763380208135  0.4791100304557228  0.9033808666226597  1.0000
  H   H1002     1.0  0.8285849244365571  0.4365390950770337  0.918937936884026  1.0000
  H   H1003     1.0  0.8457834820339463  0.39970502372510935  0.8683399808333662  1.0000
  H   H1004     1.0  0.8646700175039203  0.4423915349859468  0.8496975014552667  1.0000
  H   H1005     1.0  0.8689134093295349  0.4036112237194908  0.96767424549043  1.0000
  H   H1006     1.0  0.8327118903239255  0.4033008227163501  0.9473307373875873  1.0000
  H   H1007     1.0  0.860225861316875  0.37575565689644924  0.895441712772464  1.0000
  H   H1008     1.0  0.8991498094876179  0.38199144213686526  0.9156276615599752  1.0000
  H   H1009     1.0  0.7918696413489185  0.3756279869736212  0.8645876216051332  1.0000
  H   H1010     1.0  0.7714638976619692  0.3333462735552778  0.8453500881137915  1.0000
  H   H1011     1.0  0.7845814996657308  0.2917816202407502  0.8954814850268198  1.0000
  H   H1012     1.0  0.8102488493279513  0.33429928992174196  0.9125361336348797  1.0000
  H   H1013     1.0  0.7943390164775229  0.35442168926859996  0.9406413501454088  1.0000
  H   H1014     1.0  0.7495629550154714  0.3406310976679744  0.9543796046210559  1.0000
  H   H1015     1.0  0.7333910623216959  0.3815801167103538  0.9054092515947907  1.0000
  H   H1016     1.0  0.7792178037671118  0.3986554821997501  0.8934622782672326  1.0000
  C   C1289     1.0  0.8121472104218437  0.22732161896102607  0.3486634678075661  1.0000
  C   C1290     1.0  0.8181885384071176  0.2501060153624615  0.3601347037849491  1.0000
  C   C1291     1.0  0.8381578787786623  0.2754953167317226  0.3536778312605413  1.0000
  C   C1292     1.0  0.8529634244247913  0.27873196548432  0.3360097721141519  1.0000
  C   C1293     1.0  0.8449923551979173  0.2556731755485086  0.32383946228136634  1.0000
  C   C1294     1.0  0.8250565569210234  0.23018095424897614  0.33022902791378783  1.0000
  H   H1017     1.0  0.8091044675163434  0.24792528941920558  0.37504929916826485  1.0000
  H   H1018     1.0  0.842109735719673  0.292917399292457  0.36319563766823265  1.0000
  H   H1019     1.0  0.8545832193190992  0.25626665951117217  0.3094143715670415  1.0000
  H   H1020     1.0  0.8205578222314769  0.2122838557574291  0.3207938254189887  1.0000
  C   C1295     1.0  0.9076968692665571  0.297329845867351  0.31082016778829963  1.0000
  C   C1296     1.0  0.8949943383984765  0.31316311849855866  0.3109899647203559  1.0000
  C   C1297     1.0  0.902612768755899  0.3330563384325166  0.2956868250060286  1.0000
  C   C1298     1.0  0.9194352327875486  0.3343169350616869  0.28014964087184013  1.0000
  C   C1299     1.0  0.9307313979157816  0.3176446854603473  0.2801358735530247  1.0000
  C   C1300     1.0  0.9260830164684708  0.3001977250941003  0.2960631317203155  1.0000
  C   C1301     1.0  0.8756837354613263  0.3097465772950224  0.32957431541901255  1.0000
  C   C1302     1.0  0.8982632425464909  0.3251771042387999  0.34713376571696963  1.0000
  C   C1303     1.0  0.9144182999282057  0.35396332885740284  0.3484890817692381  1.0000
  C   C1304     1.0  0.933123252543978  0.3665778703821304  0.3641272262414059  1.0000
  C   C1305     1.0  0.9381225066533715  0.35076949777601396  0.3777966441229761  1.0000
  C   C1306     1.0  0.9229928844852762  0.3225426795977679  0.3764107340288957  1.0000
  C   C1307     1.0  0.9035463524380034  0.30987367215051986  0.36165828706718334  1.0000
  C   C1308     1.0  0.8413556702239021  0.3183380907965148  0.30767662999212386  1.0000
  C   C1309     1.0  0.8219936708704638  0.32610190187281063  0.3055365767673794  1.0000
  C   C1310     1.0  0.8197214755960598  0.3425758782745233  0.3202324247517398  1.0000
  C   C1311     1.0  0.8350562633550033  0.3483605217817625  0.33812382040335626  1.0000
  C   C1312     1.0  0.8519676441843529  0.3375453716593499  0.34102566526921785  1.0000
  C   C1313     1.0  0.856457181007619  0.3230984833984954  0.3255879117709181  1.0000
  C   C1314     1.0  0.8014254135593566  0.3563919008886024  0.3156524966924939  1.0000
  C   C1315     1.0  0.8541318471082986  0.41994479206147295  0.2717163932463817  1.0000
  C   C1316     1.0  0.8336931277181263  0.394507013255553  0.26525034250943036  1.0000
  C   C1317     1.0  0.8179579075979847  0.3739163064706143  0.2786474734188744  1.0000
  C   C1318     1.0  0.8213095859389401  0.37874605065618694  0.29949272380743264  1.0000
  C   C1319     1.0  0.8427798512992182  0.403788727431484  0.30579203701650903  1.0000
  C   C1320     1.0  0.858874412760837  0.42438316628518086  0.29207825777431157  1.0000
  C   C1321     1.0  0.7929028959346844  0.3686954450881337  0.334353104750036  1.0000
  C   C1322     1.0  0.7842542093696432  0.3550630149838253  0.353038415786672  1.0000
  C   C1323     1.0  0.7743484662562624  0.3653319407865296  0.36793771414908194  1.0000
  C   C1324     1.0  0.7736655929009303  0.3892671136835614  0.36490584460551956  1.0000
  C   C1325     1.0  0.781919909809667  0.40210356193856556  0.3462128850584305  1.0000
  C   C1326     1.0  0.790412346449258  0.3916249020294008  0.33136100746082925  1.0000
  C   C1327     1.0  0.7562371298984591  0.3418596953550523  0.2942718505722269  1.0000
  C   C1328     1.0  0.7302227163925911  0.3231455237047725  0.2878088592394567  1.0000
  C   C1329     1.0  0.7165931696044029  0.297207287681812  0.296159502952023  1.0000
  C   C1330     1.0  0.7305723389512868  0.28918913982092886  0.30912678757400935  1.0000
  C   C1331     1.0  0.7575240416143287  0.30770257673209667  0.3145709973144422  1.0000
  C   C1332     1.0  0.7707105463838315  0.3348104736751306  0.3073921054032729  1.0000
  H   H1021     1.0  0.904521602552528  0.28318817394021656  0.3233729031437344  1.0000
  H   H1022     1.0  0.8956754077394051  0.3477809972927554  0.2958474437255412  1.0000
  H   H1023     1.0  0.9267023653210144  0.35057518323779924  0.26943101832303057  1.0000
  H   H1024     1.0  0.9362344838360114  0.28830732675036563  0.2976280169589956  1.0000
  H   H1025     1.0  0.9126970726557452  0.3663800026720571  0.3364656233371497  1.0000
  H   H1026     1.0  0.9457025269966522  0.38887173152875393  0.36450659235987404  1.0000
  H   H1027     1.0  0.9250204678162726  0.3095905637680006  0.3878697323895539  1.0000
  H   H1028     1.0  0.8930253831016356  0.2874734170139842  0.36174242068216617  1.0000
  H   H1029     1.0  0.8435868241313256  0.3064660676727015  0.2954711370112545  1.0000
  H   H1030     1.0  0.8108077343991065  0.321531287307979  0.2915000303840661  1.0000
  H   H1031     1.0  0.836478598382758  0.36280315104925637  0.3500264323702876  1.0000
  H   H1032     1.0  0.8621316146017838  0.3416884254372507  0.3552687214347617  1.0000
  H   H1033     1.0  0.8302342504442454  0.3913321891095796  0.248874881629595  1.0000
  H   H1034     1.0  0.8025350266688756  0.35474375002473024  0.2724139373996937  1.0000
  H   H1035     1.0  0.8464739403101743  0.407183320773581  0.3219135673493053  1.0000
  H   H1036     1.0  0.876503203161991  0.44387105468501803  0.29714004199209537  1.0000
  H   H1037     1.0  0.782179020674101  0.33503811402118777  0.35464460298179834  1.0000
  H   H1038     1.0  0.7660281618311343  0.35375685720578287  0.38197426053239514  1.0000
  H   H1039     1.0  0.7798223279906326  0.42008157379883615  0.34257066438072026  1.0000
  H   H1040     1.0  0.7944065497075086  0.4024688383419572  0.316501481352775  1.0000
  H   H1041     1.0  0.7651500265733296  0.36232818391249133  0.2886899676436403  1.0000
  H   H1042     1.0  0.7207875761927346  0.3302797808414489  0.2769831575443055  1.0000
  H   H1043     1.0  0.7200515324489101  0.2692735740009765  0.31612517463848827  1.0000
  H   H1044     1.0  0.7674865470282539  0.30082153351126495  0.3255879117709181  1.0000
  C   C1333     1.0  0.5282361206011335  0.22574813980821562  0.19668450570262416  1.0000
  C   C1334     1.0  0.5470306512266203  0.2464592251307322  0.1841883693245415  1.0000
  C   C1335     1.0  0.5520200611456747  0.27291649825953784  0.18668637283848555  1.0000
  C   C1336     1.0  0.5398981279473415  0.27947143797702245  0.20204458182807425  1.0000
  C   C1337     1.0  0.5244582861060848  0.2590687880154178  0.2161805588472764  1.0000
  C   C1338     1.0  0.5185806432581067  0.2323316181595956  0.21353723363472563  1.0000
  H   H1045     1.0  0.5551193673450312  0.2409725173271642  0.171172134235656  1.0000
  H   H1046     1.0  0.5654911919379525  0.2883686852665485  0.17612989871127918  1.0000
  H   H1047     1.0  0.5162154309291304  0.2640890092347603  0.22953026899191187  1.0000
  H   H1048     1.0  0.5040075287427283  0.2157179402092565  0.2228745351957266  1.0000
  C   C1339     1.0  0.9890868882957908  0.28823398142077983  0.21114019045876098  1.0000
  C   C1340     1.0  0.5163765032310179  0.3079511967895361  0.21534534150581072  1.0000
  C   C1341     1.0  0.5203728784049532  0.32888078954001576  0.2288633188804119  1.0000
  C   C1342     1.0  0.9988220162808015  0.32975360892316335  0.23801858589263175  1.0000
  C   C1343     1.0  0.9719775915124248  0.30977294551329443  0.23366352404070356  1.0000
  C   C1344     1.0  0.9675577175227893  0.28973726560064544  0.21949389357550836  1.0000
  C   C1345     1.0  0.5425818392174978  0.3091346954281585  0.2041020311399265  1.0000
  C   C1346     1.0  0.5419149937357455  0.32436159944237  0.18410117630537748  1.0000
  C   C1347     1.0  0.551894588083157  0.3525050095398067  0.1828361126764542  1.0000
  C   C1348     1.0  0.547799284471766  0.3647103939727727  0.16615471137849952  1.0000
  C   C1349     1.0  0.5340671283167281  0.3485963357162177  0.14973687775075464  1.0000
  C   C1350     1.0  0.5253786977616913  0.3209309687005844  0.15001757808437907  1.0000
  C   C1351     1.0  0.5280715617204312  0.308977045857388  0.1671428989290249  1.0000
  C   C1352     1.0  0.5701264362714137  0.31653788524712767  0.23724455663478994  1.0000
  C   C1353     1.0  0.5935960408018965  0.3280083632573211  0.249056916178376  1.0000
  C   C1354     1.0  0.6185345823286277  0.3468757580524884  0.24100303467138548  1.0000
  C   C1355     1.0  0.6185605678011127  0.3545641105542954  0.22061669491000616  1.0000
  C   C1356     1.0  0.5952848124535097  0.34244547693187166  0.20857946915910244  1.0000
  C   C1357     1.0  0.5703387564774232  0.32372875576426496  0.2170723751660941  1.0000
  C   C1358     1.0  0.6462298432096263  0.3605356251300197  0.25533481355818416  1.0000
  C   C1359     1.0  0.6252790084027617  0.4136948767114602  0.29101817422552817  1.0000
  C   C1360     1.0  0.6220303048662219  0.3900877870987177  0.3000480056663192  1.0000
  C   C1361     1.0  0.6288051605572048  0.37344981758996815  0.2892223039711679  1.0000
  C   C1362     1.0  0.6398058433921551  0.3802565684281912  0.2694631420669331  1.0000
  C   C1363     1.0  0.6426790906822503  0.40422648192163074  0.26112320626900104  1.0000
  C   C1364     1.0  0.635222801263142  0.4206089466865738  0.27156342303732206  1.0000
  C   C1365     1.0  0.674459258190953  0.3741820524557003  0.24314614730031117  1.0000
  C   C1366     1.0  0.6774403866902146  0.36040837163204104  0.22653358259643344  1.0000
  C   C1367     1.0  0.7013608580733468  0.3706031642992824  0.21575071255981876  1.0000
  C   C1368     1.0  0.7232033245136842  0.3952254514005246  0.2213800162532138  1.0000
  C   C1369     1.0  0.7207160512294499  0.4094697987072786  0.23771417517660307  1.0000
  C   C1370     1.0  0.6973690288202801  0.39887841669556123  0.248802985631337  1.0000
  C   C1371     1.0  0.6386320904622255  0.3116379137408988  0.2622475373055895  1.0000
  C   C1372     1.0  0.64204329633614  0.29302296052597987  0.273265981464156  1.0000
  C   C1373     1.0  0.6592067492429792  0.30166090276816243  0.2899060808056645  1.0000
  C   C1374     1.0  0.671741813375812  0.32843967979759564  0.2963553048196193  1.0000
  C   C1375     1.0  0.668373022746451  0.3471677833822092  0.2853598061924119  1.0000
  C   C1376     1.0  0.6512696631283942  0.3391274933393613  0.26799768746414165  1.0000
  H   H1049     1.0  0.9836911787578593  0.27198854851927334  0.20005902851448001  1.0000
  H   H1050     1.0  0.5410221811133791  0.34491571092419704  0.2325177771748468  1.0000
  H   H1051     1.0  0.5031040364801171  0.34605024009484353  0.24891618358604115  1.0000
  H   H1052     1.0  0.9471388310944285  0.2740487010576178  0.2148114754761925  1.0000
  H   H1053     1.0  0.5619036018072663  0.3647549284917039  0.19629137226534088  1.0000
  H   H1054     1.0  0.555615647499399  0.38715456016250316  0.16666716157884937  1.0000
  H   H1055     1.0  0.5148792221560519  0.30756518469772376  0.13736311753991967  1.0000
  H   H1056     1.0  0.5189165803919484  0.2871643543857782  0.16666716157884937  1.0000
  H   H1057     1.0  0.5512905969824918  0.3032422122774637  0.24522654214352238  1.0000
  H   H1058     1.0  0.592738690490613  0.3228236004492818  0.2647302437986276  1.0000
  H   H1059     1.0  0.6371956682475485  0.3701417884408376  0.2134974613803701  1.0000
  H   H1060     1.0  0.596496368038362  0.3469772665777067  0.1920969291329253  1.0000
  H   H1061     1.0  0.6132418145901904  0.38393149398496973  0.31511404155660394  1.0000
  H   H1062     1.0  0.6252437543366084  0.35472180814555626  0.2968815223387845  1.0000
  H   H1063     1.0  0.6482908285867699  0.4092139121006472  0.24554777958254764  1.0000
  H   H1064     1.0  0.6368632764748524  0.4386014869833284  0.2646155161418328  1.0000
  H   H1065     1.0  0.660888055689488  0.34040883048913634  0.22187411002847648  1.0000
  H   H1066     1.0  0.7037234856265855  0.3579813096054981  0.20428559539079816  1.0000
  H   H1067     1.0  0.7379070230113968  0.4285094664057332  0.2429059840720876  1.0000
  H   H1068     1.0  0.6974650721986061  0.4093724140085025  0.2627278637620368  1.0000
  H   H1069     1.0  0.6247035392997641  0.3035262813804943  0.2488351093752395  1.0000
  H   H1070     1.0  0.6319191862665601  0.2715306619752026  0.26899046412093874  1.0000
  H   H1071     1.0  0.6862756216096103  0.3349150485495984  0.3088330847726148  1.0000
  H   H1072     1.0  0.6788612134306075  0.36820855856373413  0.2904384171331921  1.0000
  C   C1377     1.0  0.781594658078018  0.4298600398664112  0.18084138115031637  1.0000
  C   C1378     1.0  0.793612024670956  0.41489324741924877  0.17432179084019414  1.0000
  C   C1379     1.0  0.8196417548840919  0.4281617492033401  0.16598032534017154  1.0000
  C   C1380     1.0  0.834682403032636  0.4564851640943909  0.16559942951961298  1.0000
  C   C1381     1.0  0.8219968202060546  0.471104211979932  0.1719951139603969  1.0000
  C   C1382     1.0  0.7958441701356126  0.45798526701250697  0.17984860449351925  1.0000
  H   H1073     1.0  0.7832789547115417  0.392983179603132  0.17667294295344096  1.0000
  H   H1074     1.0  0.8284775911442039  0.41546140127568515  0.16106539252308502  1.0000
  H   H1075     1.0  0.8336876158540345  0.49364316792744056  0.17265594526353456  1.0000
  H   H1076     1.0  0.786054328311108  0.46981695111997884  0.184179191111998  1.0000
  C   C1383     1.0  0.854651976501957  0.4498926318531561  0.12415949394493614  1.0000
  C   C1384     1.0  0.8738061606756662  0.4619684356980054  0.1399120601334806  1.0000
  C   C1385     1.0  0.8995704493582499  0.4643676501389132  0.13733818339584294  1.0000
  C   C1386     1.0  0.9054234740673799  0.4544125329306155  0.12000268148394923  1.0000
  C   C1387     1.0  0.8854953789768869  0.44094736763498665  0.1050964994621318  1.0000
  C   C1388     1.0  0.8603842223372479  0.4392346135387996  0.1072527675290366  1.0000
  C   C1389     1.0  0.8664260331888631  0.4728261143609178  0.16036019985932004  1.0000
  C   C1390     1.0  0.8775385549607264  0.46691558922797155  0.1813874847966593  1.0000
  C   C1391     1.0  0.8795615956801598  0.48202900211196303  0.19863946497440654  1.0000
  C   C1392     1.0  0.8847632711300669  0.47523557797373944  0.21750986996400468  1.0000
  C   C1393     1.0  0.8867497501288049  0.45192931990021545  0.22016084368700842  1.0000
  C   C1394     1.0  0.8855689535525623  0.43704886461759346  0.20335859592389663  1.0000
  C   C1395     1.0  0.8813018783981199  0.4441380591769901  0.18415165647436715  1.0000
  C   C1396     1.0  0.8675965528054707  0.012317041362454156  0.13800436865629773  1.0000
  C   C1397     1.0  0.8816924429793771  0.03814498680727254  0.12992172875000405  1.0000
  C   C1398     1.0  0.9063773663509934  0.058845851987403025  0.13881862907912224  1.0000
  C   C1399     1.0  0.9172614066640049  0.050656295242113  0.15462228731749264  1.0000
  C   C1400     1.0  0.9046794274764695  0.023934792987056825  0.16088641737848525  1.0000
  C   C1401     1.0  0.8790826313638597  0.004358409084591728  0.1539017976328217  1.0000
  C   C1402     1.0  0.9243475685865816  0.08804303608927405  0.12789487347996367  1.0000
  C   C1403     1.0  0.9715196962058158  0.06451887599129716  0.08830358288177269  1.0000
  C   C1404     1.0  0.9450660337118457  0.05815351573286806  0.08297195921520767  1.0000
  C   C1405     1.0  0.9310237045332668  0.06650603984536176  0.09505446414799305  1.0000
  C   C1406     1.0  0.9424493792093094  0.08105169973006503  0.11292077268532376  1.0000
  C   C1407     1.0  0.9685905576334233  0.08622721198735642  0.11876239902889361  1.0000
  C   C1408     1.0  0.9827958068450068  0.07735422897828322  0.10660157334906967  1.0000
  C   C1409     1.0  0.9433637671042491  0.11405352277062576  0.14212737470108244  1.0000
  C   C1410     1.0  0.9385378358807159  0.11558208633212667  0.16275724303528472  1.0000
  C   C1411     1.0  0.953940913182634  0.13898692127152745  0.17398219697608172  1.0000
  C   C1412     1.0  0.9735078770718405  0.16214486023675279  0.16448121729138696  1.0000
  C   C1413     1.0  0.978570405119866  0.16144523891674697  0.14407284981990304  1.0000
  C   C1414     1.0  0.9637701857954063  0.1373892440814778  0.13320232785349723  1.0000
  C   C1415     1.0  0.9091114038210141  0.10800613697322778  0.09752722757744227  1.0000
  C   C1416     1.0  0.8920972608347798  0.11646760667774879  0.08872899303316754  1.0000
  C   C1417     1.0  0.8711175734065502  0.1159907166652857  0.10006010829905193  1.0000
  C   C1418     1.0  0.8674226000229063  0.1071240481641695  0.11994378795346126  1.0000
  C   C1419     1.0  0.8844930467443971  0.0986045384748329  0.12853903103031386  1.0000
  C   C1420     1.0  0.9051656103465291  0.0979440095127305  0.1173608859734891  1.0000
  H   H1077     1.0  0.8346951437777342  0.4475654262392061  0.12504412066392806  1.0000
  H   H1078     1.0  0.915263880782383  0.47472338330188035  0.14917394738141512  1.0000
  H   H1079     1.0  0.9257382534612247  0.4566881468104876  0.11897502761948651  1.0000
  H   H1080     1.0  0.8437967247403374  0.4271422599734492  0.09654255834172532  1.0000
  H   H1081     1.0  0.8757044619172638  0.49921113467443134  0.19775223776186052  1.0000
  H   H1082     1.0  0.8856145794990983  0.48733690403289937  0.23054599118006794  1.0000
  H   H1083     1.0  0.8874816640752916  0.41866810605838434  0.20561031740125466  1.0000
  H   H1084     1.0  0.8764455834578875  0.42953665817915904  0.17191709915377654  1.0000
  H   H1085     1.0  0.8480012093881922  0.49683100717585604  0.1311875572299726  1.0000
  H   H1086     1.0  0.8727264716171974  0.04236918035433086  0.11676399621773836  1.0000
  H   H1087     1.0  0.937528413075523  0.06473600609922123  0.16131779336803345  1.0000
  H   H1088     1.0  0.9161660833121753  0.018167049705127437  0.1711415401938441  1.0000
  H   H1089     1.0  0.935731414815627  0.04783119164274627  0.0691616557710936  1.0000
  H   H1090     1.0  0.9099037400486186  0.06013735203205386  0.09054597317637804  1.0000
  H   H1091     1.0  0.9781792490753447  0.09689570045708064  0.13275075979635315  1.0000
  H   H1092     1.0  0.5027560278028238  0.08180371432460348  0.11211446671337036  1.0000
  H   H1093     1.0  0.9212195650381387  0.09793215641029887  0.16949405104227164  1.0000
  H   H1094     1.0  0.9502491753915558  0.13916351659493453  0.19013279164859942  1.0000
  H   H1095     1.0  0.9937014469638517  0.17968046602478766  0.1360899464899162  1.0000
  H   H1096     1.0  0.9677370139177053  0.13809293983648877  0.11721464645362809  1.0000
  H   H1097     1.0  0.9259224695025535  0.11013066124952305  0.08803282561173707  1.0000
  H   H1098     1.0  0.8955075407912276  0.12390017277965311  0.07318645494166195  1.0000
  H   H1099     1.0  0.8523975572730068  0.10762614436980625  0.1297055818446028  1.0000
  H   H1100     1.0  0.8813768635355639  0.09195691286677836  0.1441433690862796  1.0000
  C   C1421     1.0  0.78172274357954  0.2477220428572796  0.028796335915060697  1.0000
  C   C1422     1.0  0.79967513907679  0.2525118618864311  0.013087626285453622  1.0000
  C   C1423     1.0  0.827137702495331  0.27104687761525487  0.01595662844743005  1.0000
  C   C1424     1.0  0.8368367065318079  0.28647768413034036  0.033748134552530576  1.0000
  C   C1425     1.0  0.8185710683605638  0.2788912983662818  0.04999617124821925  1.0000
  C   C1426     1.0  0.7913459409778626  0.26027421913243975  0.04729945943270671  1.0000
  H   H1101     1.0  0.7921969572820735  0.24324003662217059  0.9982514605793632  1.0000
  H   H1102     1.0  0.8405990475886024  0.2746529254406476  0.0031541557797247766  1.0000
  H   H1103     1.0  0.8254982229632695  0.29004365021690587  0.06407539631986023  1.0000
  H   H1104     1.0  0.7769335582500687  0.25751374470534033  0.05901758932751202  1.0000
  C   C1427     1.0  0.8513566505565611  0.3436978101555981  0.05131370365885001  1.0000
  C   C1428     1.0  0.8710991994355439  0.33566214144842377  0.04973795753532657  1.0000
  C   C1429     1.0  0.8953286544940077  0.3504764199921012  0.06111985891061877  1.0000
  C   C1430     1.0  0.8987359588774341  0.3709244214069524  0.074384211678599  1.0000
  C   C1431     1.0  0.8780481674534268  0.3768181088606943  0.07693957902094042  1.0000
  C   C1432     1.0  0.8553194629335785  0.3645219033619253  0.06433039765836267  1.0000
  C   C1433     1.0  0.8676743468138441  0.31131101109092674  0.03529221584277869  1.0000
  C   C1434     1.0  0.8815351451906338  0.32865869067925224  0.015489457428961882  1.0000
  C   C1435     1.0  0.9095981203274384  0.34177399949829057  0.01144665366478715  1.0000
  C   C1436     1.0  0.9201039940616571  0.35772960882497445  0.994081492680397  1.0000
  C   C1437     1.0  0.9030181408959372  0.35928371445852897  0.9797451246873269  1.0000
  C   C1438     1.0  0.8749568763827088  0.3468875645599939  0.9831961326037126  1.0000
  C   C1439     1.0  0.8649058654778079  0.33295421660145297  0.0013598152274552078  1.0000
  C   C1440     1.0  0.8786994002923963  0.28872023333932223  0.06502778884146561  1.0000
  C   C1441     1.0  0.8922529222354548  0.2774106855800731  0.07411834945525334  1.0000
  C   C1442     1.0  0.9077469625142904  0.2691144734377771  0.06285316434947365  1.0000
  C   C1443     1.0  0.9049365386967816  0.26879267395107975  0.041584492422238245  1.0000
  C   C1444     1.0  0.8924788562790337  0.2819941952553686  0.032277173022213  1.0000
  C   C1445     1.0  0.8804683846043634  0.2938411765815804  0.044183456274161675  1.0000
  C   C1446     1.0  0.9279663660458733  0.26123357435228145  0.07535954973156332  1.0000
  C   C1447     1.0  0.976425938351719  0.32703136111990544  0.119281426948233  1.0000
  C   C1448     1.0  0.9661767933543359  0.30006564060027524  0.12496794149981637  1.0000
  C   C1449     1.0  0.9515646136567457  0.27882950351142255  0.11137975079925685  1.0000
  C   C1450     1.0  0.9452198663315374  0.28401187667774036  0.09201571094502314  1.0000
  C   C1451     1.0  0.9559881959230235  0.31136028798306753  0.08643734633124493  1.0000
  C   C1452     1.0  0.9709498093761756  0.33234529041656086  0.09985298663598517  1.0000
  C   C1453     1.0  0.9525743309192268  0.2619304927135305  0.06313600626602493  1.0000
  C   C1454     1.0  0.9621397739793298  0.24407309381055023  0.06787379958102036  1.0000
  C   C1455     1.0  0.983218030138316  0.24431586783162385  0.057692255436219225  1.0000
  C   C1456     1.0  0.9975866468701604  0.26430096168774325  0.043531038332522275  1.0000
  C   C1457     1.0  0.9883548273006988  0.28193722081330946  0.03790953611978925  1.0000
  C   C1458     1.0  0.9664706795605514  0.2812151706111431  0.04805191989107112  1.0000
  C   C1459     1.0  0.896456735725634  0.22309706072436977  0.102876136877631  1.0000
  C   C1460     1.0  0.8807981021395593  0.19595076257041832  0.10856877023757676  1.0000
  C   C1461     1.0  0.8703062113031376  0.1752794464926769  0.09381051040791999  1.0000
  C   C1462     1.0  0.8775258277619229  0.18299478772319383  0.07380292488417234  1.0000
  C   C1463     1.0  0.8950224493780227  0.21007954934147902  0.06859015907004669  1.0000
  C   C1464     1.0  0.906001765349936  0.23080458472102205  0.08303804234552142  1.0000
  H   H1105     1.0  0.8322927425649479  0.3339004156769518  0.041975484276594706  1.0000
  H   H1106     1.0  0.9121990161525453  0.3464655286897594  0.059266165917233944  1.0000
  H   H1107     1.0  0.9172534276513481  0.3815975454035041  0.08334275900196825  1.0000
  H   H1108     1.0  0.8380005578365982  0.3683161104868936  0.06558429446202461  1.0000
  H   H1109     1.0  0.923636628201075  0.3398350286353508  0.022162782799189054  1.0000
  H   H1110     1.0  0.9419039494300115  0.36801624838967206  0.9912469547065218  1.0000
  H   H1111     1.0  0.8616641118900177  0.34799677228101455  0.9717478421576885  1.0000
  H   H1112     1.0  0.8435120840960196  0.3253027965352946  0.004599724255338611  1.0000
  H   H1113     1.0  0.8661412528535011  0.29390438095191557  0.07445197748121243  1.0000
  H   H1114     1.0  0.8913946175780089  0.27676846512280107  0.09077038047306854  1.0000
  H   H1115     1.0  0.9151867890249761  0.260875027539112  0.0321251206344077  1.0000
  H   H1116     1.0  0.8927910450410304  0.2838416329396436  0.015580321733143313  1.0000
  H   H1117     1.0  0.9696504791386036  0.2950204350876391  0.1403893271857467  1.0000
  H   H1118     1.0  0.9464701357186276  0.2587779153477259  0.11644260580850405  1.0000
  H   H1119     1.0  0.9525302238403213  0.3161215097531001  0.07089266665681253  1.0000
  H   H1120     1.0  0.979604413520355  0.35337226553627  0.09518418288527564  1.0000
  H   H1121     1.0  0.9532486031775732  0.22950749807045426  0.08023746375805739  1.0000
  H   H1122     1.0  0.9911280079758917  0.23061757245156525  0.0626796961324  1.0000
  H   H1123     1.0  0.9993460043225874  0.2970153491075638  0.025873840070976113  1.0000
  H   H1124     1.0  0.9610465515265563  0.29664846649803767  0.04400876429541555  1.0000
  H   H1125     1.0  0.9008535524536461  0.2385038102332615  0.11435700997818479  1.0000
  H   H1126     1.0  0.8750067169570318  0.19148966248952384  0.1244863912816966  1.0000
  H   H1127     1.0  0.8684921628290092  0.16835840107030886  0.06138067311706547  1.0000
  H   H1128     1.0  0.8989818769970676  0.21433843692992927  0.05264653309038672  1.0000
  C   C1465     1.0  0.7552207651034955  0.24232574180868813  0.8402867741939171  1.0000
  C   C1466     1.0  0.7553323956245211  0.22203510889516662  0.8517977824256557  1.0000
  C   C1467     1.0  0.738672628391176  0.1947059290948057  0.8470480574343536  1.0000
  C   C1468     1.0  0.7192198401442393  0.1865454233077754  0.8316516058925  1.0000
  C   C1469     1.0  0.7208868829239161  0.2075301819657623  0.8189153062861937  1.0000
  C   C1470     1.0  0.7390109513644724  0.2347278246481181  0.8230623286538007  1.0000
  H   H1129     1.0  0.7691487060784843  0.22787773860878996  0.8648966214274334  1.0000
  H   H1130     1.0  0.7382611723350464  0.1791457568885637  0.857430145523232  1.0000
  H   H1131     1.0  0.7090891915059803  0.20219187066744262  0.8046187105474789  1.0000
  H   H1132     1.0  0.7410365467271741  0.25135985141280215  0.8135904133088273  1.0000
  C   C1471     1.0  0.6578359135228383  0.16146099073040554  0.8151063480806084  1.0000
  C   C1472     1.0  0.6711844396304998  0.14640751921593764  0.8153419222025603  1.0000
  C   C1473     1.0  0.6601956219990072  0.12298120353206543  0.8031884390927713  1.0000
  C   C1474     1.0  0.638117626841391  0.11579237613855291  0.7904001296153846  1.0000
  C   C1475     1.0  0.6263319611692543  0.1319811815150994  0.7889637393523146  1.0000
  C   C1476     1.0  0.6357215191784336  0.15449152854933884  0.8020702268645455  1.0000
  C   C1477     1.0  0.6967970040401028  0.15462697010737564  0.8303268838820435  1.0000
  C   C1478     1.0  0.6809731056505599  0.14246262591978123  0.8513679361381981  1.0000
  C   C1479     1.0  0.6683451799909099  0.11474540413504729  0.8565796311608603  1.0000
  C   C1480     1.0  0.6561920538990356  0.10560977709651355  0.8753246005790296  1.0000
  C   C1481     1.0  0.6568331982633936  0.1241481732330343  0.889535533000671  1.0000
  C   C1482     1.0  0.6681637871556059  0.1515067886239964  0.88389093228637  1.0000
  C   C1483     1.0  0.6790376390486614  0.16037744310320953  0.8649256857671547  1.0000
  C   C1484     1.0  0.7259885468315016  0.1508717472963554  0.8018499497634993  1.0000
  C   C1485     1.0  0.7409326135924122  0.14045897289906695  0.793201014143267  1.0000
  C   C1486     1.0  0.7450694367535978  0.12089945565373071  0.8032893994307506  1.0000
  C   C1487     1.0  0.737021395567904  0.11551896121904374  0.8232917839673902  1.0000
  C   C1488     1.0  0.722262905466149  0.1260450758070205  0.8321212244343131  1.0000
  C   C1489     1.0  0.7158509510047666  0.14314632124750742  0.8213398840997891  1.0000
  C   C1490     1.0  0.7552738928566977  0.10373332658548223  0.7904322533592871  1.0000
  C   C1491     1.0  0.6825748769525656  0.05936369214166363  0.7516604241710287  1.0000
  C   C1492     1.0  0.7060924881767223  0.08067620976741235  0.7437992851274534  1.0000
  C   C1493     1.0  0.7293585366807215  0.0941880730710961  0.7554693823766139  1.0000
  C   C1494     1.0  0.7295099969607232  0.08711687340938594  0.775955152773882  1.0000
  C   C1495     1.0  0.7055673323751727  0.06610532378047224  0.7840380986205938  1.0000
  C   C1496     1.0  0.6827090958388761  0.052180694507085235  0.771880026404533  1.0000
  C   C1497     1.0  0.763488542320388  0.0848711671487764  0.8031731420718653  1.0000
  C   C1498     1.0  0.7810954587717249  0.095115813694647  0.8197719394569277  1.0000
  C   C1499     1.0  0.7919753903839573  0.0808803086649216  0.8288736668959767  1.0000
  C   C1500     1.0  0.7852338990303616  0.055400825626746496  0.8212526910806252  1.0000
  C   C1501     1.0  0.7679654337087944  0.044865845853051506  0.8048940569237863  1.0000
  C   C1502     1.0  0.7572215902752756  0.05900412984081606  0.7958458690579081  1.0000
  C   C1503     1.0  0.8022064091296769  0.14805481848427646  0.7866829535352351  1.0000
  C   C1504     1.0  0.8285862033562368  0.1625427316135315  0.7791522301432287  1.0000
  C   C1505     1.0  0.8369107181956265  0.1510439583107652  0.7643401247999829  1.0000
  C   C1506     1.0  0.8190659376877286  0.1254548582819582  0.7567267974950842  1.0000
  C   C1507     1.0  0.7925866242964731  0.11152021481886043  0.7639133379167065  1.0000
  C   C1508     1.0  0.7837456650910578  0.12227299662321721  0.7790680965282459  1.0000
  H   H1133     1.0  0.6637273610972937  0.1789149193920614  0.8252788669830751  1.0000
  H   H1134     1.0  0.6681740361500859  0.10908105044943961  0.8036641764429469  1.0000
  H   H1135     1.0  0.630233674579229  0.09756832346361625  0.7813672387704124  1.0000
  H   H1136     1.0  0.6247027792382651  0.16589156945114725  0.8027065829342334  1.0000
  H   H1137     1.0  0.6667426790104507  0.0991221506034385  0.8465264290214602  1.0000
  H   H1138     1.0  0.6463938858627659  0.08382208784791928  0.8781882028926263  1.0000
  H   H1139     1.0  0.668254094158303  0.16694337712228444  0.8940190898282093  1.0000
  H   H1140     1.0  0.6868908569961376  0.18161349009938355  0.8611962720702805  1.0000
  H   H1141     1.0  0.7215633071767203  0.16442727933228318  0.7925753659882128  1.0000
  H   H1142     1.0  0.7478611946665734  0.14554349841762906  0.7778091517076849  1.0000
  H   H1143     1.0  0.7397615006111637  0.10075782181702729  0.8321166353280414  1.0000
  H   H1144     1.0  0.7158996695128027  0.12033111207502657  0.8474595472967241  1.0000
  H   H1145     1.0  0.7058054272593443  0.08800854614337916  0.7283737692458787  1.0000
  H   H1146     1.0  0.7472176125541179  0.11147442455182562  0.7489528514706729  1.0000
  H   H1147     1.0  0.7052051376283578  0.060828481872556746  0.7997649658140163  1.0000
  H   H1148     1.0  0.6644755015643132  0.03472385354274207  0.7785816512634361  1.0000
  H   H1149     1.0  0.7863957692506508  0.11489901577905252  0.825483847063215  1.0000
  H   H1150     1.0  0.8067159261112957  0.08930723865557506  0.8421101790859082  1.0000
  H   H1151     1.0  0.7626990709031726  0.02518754161379475  0.7988425554533866  1.0000
  H   H1152     1.0  0.7450374894017096  0.050463700054847564  0.7824670945735512  1.0000
  H   H1153     1.0  0.7979392274041252  0.1572739212364417  0.7998383915143649  1.0000
  H   H1154     1.0  0.8418550510194915  0.18231674930875108  0.7856060432634553  1.0000
  H   H1155     1.0  0.8265192246129283  0.11574760264439152  0.7464074271919203  1.0000
  H   H1156     1.0  0.7784359125811425  0.09052781700975335  0.7590412367581566  1.0000
  C   C1509     1.0  0.5541879555873872  0.2314242861136158  0.6810692617962727  1.0000
  C   C1510     1.0  0.5360368193936828  0.209269127047085  0.6694848278641855  1.0000
  C   C1511     1.0  0.5285787318275237  0.18303146754731595  0.6754812600593237  1.0000
  C   C1512     1.0  0.5407164730641694  0.1780383528018745  0.6921427752301008  1.0000
  C   C1513     1.0  0.5575645665384164  0.20064053348141905  0.7044798225907614  1.0000
  C   C1514     1.0  0.563964005409318  0.22673199039642364  0.6991947018677505  1.0000
  H   H1157     1.0  0.5283936324194802  0.2124417225420269  0.6549878411516026  1.0000
  H   H1158     1.0  0.5131559967314436  0.16565341433271105  0.6671703886011131  1.0000
  H   H1159     1.0  0.5654214947276799  0.19809467658911328  0.7190089330472467  1.0000
  H   H1160     1.0  0.5786579823217647  0.2444721767417847  0.7081342808851963  1.0000
  C   C1515     1.0  0.5831903216784954  0.16101834452334277  0.7111141405576782  1.0000
  C   C1516     1.0  0.5550635725270809  0.14439483419900442  0.71263160503155  1.0000
  C   C1517     1.0  0.5458797838077336  0.12319053667238589  0.7266666217127726  1.0000
  C   C1518     1.0  0.5634212648263585  0.11999376231918958  0.739702742928836  1.0000
  C   C1519     1.0  0.591446223381965  0.13797446814811448  0.7386380702737808  1.0000
  C   C1520     1.0  0.6013231538140935  0.15915721117557935  0.724466910106495  1.0000
  C   C1521     1.0  0.535436828413068  0.14764829868715496  0.6966293914618201  1.0000
  C   C1522     1.0  0.5408119262012162  0.1342643514237611  0.6765811158624626  1.0000
  C   C1523     1.0  0.5317885836394356  0.10642983280760474  0.6757673143502653  1.0000
  C   C1524     1.0  0.5362235829463381  0.09476587609676582  0.6587157251463863  1.0000
  C   C1525     1.0  0.5502057582712487  0.11052818734310209  0.6423234375435544  1.0000
  C   C1526     1.0  0.5602924940665969  0.13870203985092822  0.6432795013501771  1.0000
  C   C1527     1.0  0.5563101880231008  0.1503592368420495  0.6603540360854151  1.0000
  C   C1528     1.0  0.5009061270392119  0.14316035552243805  0.7235567373625901  1.0000
  C   C1529     1.0  0.9760796053777613  0.1303236972063013  0.7330271230054732  1.0000
  C   C1530     1.0  0.9534456831916227  0.10786726886582908  0.7242145092615466  1.0000
  C   C1531     1.0  0.9567807390150614  0.09995273569376961  0.7050473420663725  1.0000
  C   C1532     1.0  0.9821437645059917  0.11271223723480367  0.6955540108921309  1.0000
  C   C1533     1.0  0.504785549644402  0.13317121602258045  0.7052966835071399  1.0000
  C   C1534     1.0  0.9250892977304005  0.09162936170303307  0.7364521259863185  1.0000
  C   C1535     1.0  0.9587481407995617  0.05115231292699125  0.7756415638453097  1.0000
  C   C1536     1.0  0.9568537691076825  0.07296567860581864  0.7835057622930662  1.0000
  C   C1537     1.0  0.9449092457513415  0.0850675030040361  0.7716888136432085  1.0000
  C   C1538     1.0  0.9359629676403443  0.07645554448924988  0.7516910182128406  1.0000
  C   C1539     1.0  0.9392565361133515  0.05477326218584872  0.7443943392406954  1.0000
  C   C1540     1.0  0.9504664590433746  0.04245083079148653  0.7559405306205176  1.0000
  C   C1541     1.0  0.8981214903678679  0.07219186360022863  0.7230244010350628  1.0000
  C   C1542     1.0  0.890434344377644  0.08307453631057869  0.7066856530054014  1.0000
  C   C1543     1.0  0.8652927424294734  0.06853998632114894  0.6975288562910908  1.0000
  C   C1544     1.0  0.8462833804341399  0.04314385259079965  0.7046312630977303  1.0000
  C   C1545     1.0  0.8536366993983063  0.03203611101832857  0.720410140162233  1.0000
  C   C1546     1.0  0.8794692796993472  0.045761314562280914  0.7288801006378658  1.0000
  C   C1547     1.0  0.8976992027410204  0.10224786678073759  0.7635829222651376  1.0000
  C   C1548     1.0  0.8880663046166336  0.11864446003024097  0.7712390812285731  1.0000
  C   C1549     1.0  0.8954803147835279  0.14354691360539845  0.7618727153278508  1.0000
  C   C1550     1.0  0.9131648965424629  0.15238269379786348  0.7457144721448802  1.0000
  C   C1551     1.0  0.9224235407322062  0.13602029280270295  0.7380996151378908  1.0000
  C   C1552     1.0  0.9160739412509676  0.11132122496965513  0.7474415058051636  1.0000
  H   H1161     1.0  0.5922967668809092  0.17707164634809416  0.6996367857719329  1.0000
  H   H1162     1.0  0.524492368195035  0.10723595951363674  0.7272173144653874  1.0000
  H   H1163     1.0  0.5554429058135367  0.1018867762731294  0.7494790689898382  1.0000
  H   H1164     1.0  0.6230863302467402  0.1723791166989343  0.7232018464775716  1.0000
  H   H1165     1.0  0.5201994729304998  0.0942028884978844  0.6888936879896738  1.0000
  H   H1166     1.0  0.5294171366550877  0.07307367120332872  0.6582063343502176  1.0000
  H   H1167     1.0  0.572230753596471  0.15178123580746372  0.6302602068571105  1.0000
  H   H1168     1.0  0.5641561234138114  0.17179772324264156  0.6599119521812327  1.0000
  H   H1169     1.0  0.5176498779297471  0.15992541663698207  0.7316366238051206  1.0000
  H   H1170     1.0  0.9745143466178028  0.13817599058822255  0.7478224016257221  1.0000
  H   H1171     1.0  0.940162772172152  0.08253473639475291  0.6970408813241906  1.0000
  H   H1172     1.0  0.9842157872734684  0.10622344130285365  0.6806378858067245  1.0000
  H   H1173     1.0  0.9627481216727671  0.07884608839753048  0.7991117830213316  1.0000
  H   H1174     1.0  0.9436903520316716  0.10222496845691255  0.7782084039533309  1.0000
  H   H1175     1.0  0.9336455714954704  0.04800409148040423  0.728765372981071  1.0000
  H   H1176     1.0  0.9512550216456506  0.02459166787531753  0.7501659052285159  1.0000
  H   H1177     1.0  0.9042923245857949  0.1037783009411833  0.7017707201883149  1.0000
  H   H1178     1.0  0.860118554284712  0.0784345379081225  0.6855910611760759  1.0000
  H   H1179     1.0  0.8380866398767599  0.012863803183778624  0.7268455968573725  1.0000
  H   H1180     1.0  0.8836841504864213  0.03651694952566821  0.7418749198974832  1.0000
  H   H1181     1.0  0.8898918851748934  0.08219418177321076  0.7703197302721246  1.0000
  H   H1182     1.0  0.8747041944791292  0.11192028058033211  0.7847601180073553  1.0000
  H   H1183     1.0  0.9184544254214225  0.17171104395708056  0.7381990457737796  1.0000
  H   H1184     1.0  0.9346890070463273  0.1427255521323639  0.7242389844949961  1.0000
  C   C1553     1.0  0.5621657141220411  0.2698883768819082  0.527675325257529  1.0000
  C   C1554     1.0  0.5401073717201406  0.26914909051315306  0.5371686564317709  1.0000
  C   C1555     1.0  0.53140194373659  0.28707638157128346  0.5306918977801853  1.0000
  C   C1556     1.0  0.5452607843221738  0.3065130523357989  0.515434649128576  1.0000
  C   C1557     1.0  0.5651913290032181  0.30396623599324524  0.5047542691320313  1.0000
  C   C1558     1.0  0.5739270663256134  0.28648917449735223  0.5110612308515606  1.0000
  H   H1185     1.0  0.5299470468806112  0.2549641470268506  0.5496556145973099  1.0000
  H   H1186     1.0  0.5137576766507798  0.28597534766401855  0.5386815317993711  1.0000
  H   H1187     1.0  0.5754527884808734  0.3170312147724166  0.49137243524349333  1.0000
  H   H1188     1.0  0.5899017990273273  0.2855437283554105  0.5030823047470093  1.0000
  C   C1559     1.0  0.5843999310208677  0.36719670721088327  0.5004940488097201  1.0000
  C   C1560     1.0  0.5562263031663904  0.3529042610512944  0.49545215071911414  1.0000
  C   C1561     1.0  0.5479028675644297  0.3623738300560124  0.4785198782783016  1.0000
  C   C1562     1.0  0.5665652394476443  0.383233851054808  0.4667274048618933  1.0000
  C   C1563     1.0  0.5938064215978778  0.3965280030089366  0.47114059539326414  1.0000
  C   C1564     1.0  0.6020668562977188  0.3888522474854939  0.48832526867902504  1.0000
  C   C1565     1.0  0.5351542591609972  0.32757352772277243  0.5095498851860513  1.0000
  C   C1566     1.0  0.5338591683684056  0.34416240696209033  0.5291377204561393  1.0000
  C   C1567     1.0  0.5219286468824285  0.36034913751628134  0.5273449096059604  1.0000
  C   C1568     1.0  0.5217008286966798  0.37616853541932843  0.5433134697296971  1.0000
  C   C1569     1.0  0.5329214444257189  0.3752962971902881  0.5619559491077962  1.0000
  C   C1570     1.0  0.5449268806267724  0.3595314270377047  0.5639323242088469  1.0000
  C   C1571     1.0  0.5466871152022074  0.3450754841974166  0.5478077344718694  1.0000
  C   C1572     1.0  0.507593818974847  0.2945124945806985  0.4801933723654144  1.0000
  C   C1573     1.0  0.9841736941717378  0.2784168875625095  0.46884757195946003  1.0000
  C   C1574     1.0  0.9595385016648443  0.27705519786811666  0.47388335124170367  1.0000
  C   C1575     1.0  0.9593006505691073  0.2904802955249399  0.4913831431581274  1.0000
  C   C1576     1.0  0.9822230185530451  0.30405547914386954  0.5037125420083352  1.0000
  C   C1577     1.0  0.507307554423138  0.307978642999774  0.49762279798567055  1.0000
  C   C1578     1.0  0.9334763308220406  0.261185910169706  0.45918444385316226  1.0000
  C   C1579     1.0  0.9651262596096627  0.3295978315281429  0.41601472115443866  1.0000
  C   C1580     1.0  0.9668942490132424  0.3066410359977091  0.41167954542968827  1.0000
  C   C1581     1.0  0.9562112670218993  0.2847030685126422  0.425017017957599  1.0000
  C   C1582     1.0  0.9418871119688631  0.28427127178334327  0.4421940427329069  1.0000
  C   C1583     1.0  0.9397245145093962  0.30703373327045014  0.44570164962664466  1.0000
  C   C1584     1.0  0.9510692463743197  0.3293861209775976  0.43320092414229017  1.0000
  C   C1585     1.0  0.9041383587164701  0.2504987443250701  0.4693003637782766  1.0000
  C   C1586     1.0  0.8987939085780504  0.23945661082619812  0.4886618031389563  1.0000
  C   C1587     1.0  0.873157592507432  0.22990905975732534  0.4972036596128471  1.0000
  C   C1588     1.0  0.8517502147397117  0.22848044813113705  0.4859572898427819  1.0000
  C   C1589     1.0  0.856448047804908  0.23804704516805356  0.4659090142434242  1.0000
  C   C1590     1.0  0.8826657390762678  0.24950402230762916  0.4579790386057722  1.0000
  C   C1591     1.0  0.9118386674614406  0.2211601992733013  0.4328842758095367  1.0000
  C   C1592     1.0  0.9046569655293245  0.19564104474613225  0.42579563632171274  1.0000
  C   C1593     1.0  0.9132099310717158  0.18000254950311015  0.43655250142278706  1.0000
  C   C1594     1.0  0.9283657802946245  0.19028092196840674  0.4545127336684804  1.0000
  C   C1595     1.0  0.9349900381720543  0.2158900077858165  0.4613015515465476  1.0000
  C   C1596     1.0  0.927879454097893  0.23233518675975728  0.45038712713014184  1.0000
  H   H1189     1.0  0.592368174255267  0.3608768285782518  0.512939705018813  1.0000
  H   H1190     1.0  0.5267106229233846  0.3525736240814067  0.47367684145947314  1.0000
  H   H1191     1.0  0.5585670221010223  0.3891592819698048  0.45295090783398134  1.0000
  H   H1192     1.0  0.6243076700334206  0.39925293838212594  0.4913831431581274  1.0000
  H   H1193     1.0  0.5141867055261449  0.3618100966142655  0.5125175072418084  1.0000
  H   H1194     1.0  0.5122062399672278  0.3888086400143199  0.5409041889370075  1.0000
  H   H1195     1.0  0.5547421435658555  0.358986568550146  0.5777455340869332  1.0000
  H   H1196     1.0  0.5584446548781613  0.334444701292375  0.5500931093952205  1.0000
  H   H1197     1.0  0.5267781621094934  0.297142572401694  0.4746237270535524  1.0000
  H   H1198     1.0  0.984833456405375  0.26787016043540707  0.45554222317545184  1.0000
  H   H1199     1.0  0.9404586150912638  0.28916569054705316  0.4962353581894995  1.0000
  H   H1200     1.0  0.978819628975344  0.31258744036189406  0.5177444992853767  1.0000
  H   H1201     1.0  0.9777636193681623  0.3058329518290391  0.3982120482240768  1.0000
  H   H1202     1.0  0.9602363760981095  0.2681999999956893  0.42202492066839226  1.0000
  H   H1203     1.0  0.928777989926748  0.3073415949534552  0.4588157856493283  1.0000
  H   H1204     1.0  0.9490843384750823  0.3472867527290472  0.43703282787923436  1.0000
  H   H1205     1.0  0.9143302737038956  0.237715268696468  0.4978185998532669  1.0000
  H   H1206     1.0  0.8698916257827443  0.22098454221792257  0.5124333736268256  1.0000
  H   H1207     1.0  0.8397963270305633  0.2356409668811999  0.45595677244200344  1.0000
  H   H1208     1.0  0.8847818658308374  0.25467999591704144  0.4418391518478885  1.0000
  H   H1209     1.0  0.9038035403002254  0.2322688126293738  0.42431641440010576  1.0000
  H   H1210     1.0  0.8927704215306305  0.18877304581934332  0.4123006044784704  1.0000
  H   H1211     1.0  0.9353573540305646  0.17862970688778848  0.4639142827172864  1.0000
  H   H1212     1.0  0.9468567290356892  0.22250085098077352  0.47526008312324053  1.0000
  C   C1597     1.0  0.7224063382508861  0.4133846921728405  0.3767013774261092  1.0000
  C   C1598     1.0  0.7016114911414912  0.40661184524431576  0.3904579883268432  1.0000
  C   C1599     1.0  0.6930255850365765  0.42505772004941345  0.39445357018748123  1.0000
  C   C1600     1.0  0.7056208805330797  0.4508617587745513  0.385682258400001  1.0000
  C   C1601     1.0  0.72565848201464  0.4570002854373909  0.3712342221543172  1.0000
  C   C1602     1.0  0.7340944750813987  0.43821062113302467  0.36698318004454955  1.0000
  H   H1213     1.0  0.6923415511528125  0.3870286110223953  0.39844456294184744  1.0000
  H   H1214     1.0  0.6758039263762063  0.4193416603363566  0.40446700007252595  1.0000
  H   H1215     1.0  0.735192101321653  0.4761697352454131  0.36293864771701245  1.0000
  H   H1216     1.0  0.7493176427765881  0.44292120823163916  0.3555042955567136  1.0000
  C   C1603     1.0  0.6888085902430577  0.4625452500079292  0.42919157496283683  1.0000
  C   C1604     1.0  0.6818030467031818  0.47151406760829156  0.4114669168390953  1.0000
  C   C1605     1.0  0.6615809333067771  0.47920696208207453  0.41362991559519874  1.0000
  C   C1606     1.0  0.64749337012721  0.474598625630616  0.4314494152485572  1.0000
  C   C1607     1.0  0.6530669432640381  0.4630513637114194  0.44809257399424696  1.0000
  C   C1608     1.0  0.6751064527368108  0.45879893157220736  0.4472007576754292  1.0000
  C   C1609     1.0  0.695462045859948  0.47281065441075015  0.3899516569348558  1.0000
  C   C1610     1.0  0.6732991003866482  0.4629555205447993  0.37195318213689754  1.0000
  C   C1611     1.0  0.6806010044187026  0.47353697104841613  0.3526208071159392  1.0000
  C   C1612     1.0  0.6617639169611674  0.46290687085602744  0.33669354894864856  1.0000
  C   C1613     1.0  0.6353915326894168  0.4415470147631585  0.33991816095562594  1.0000
  C   C1614     1.0  0.6288710863275927  0.4296674892828879  0.35904402619435377  1.0000
  C   C1615     1.0  0.6472169454229005  0.4408610910400784  0.3749253932989265  1.0000
  C   C1616     1.0  0.7438719842802379  0.01179166036957034  0.3998580076735588  1.0000
  C   C1617     1.0  0.7620742271211799  0.03896740687614114  0.40522420260737113  1.0000
  C   C1618     1.0  0.7551074182568918  0.059216685680632396  0.40189710056032374  1.0000
  C   C1619     1.0  0.731468775699092  0.05141367888583444  0.3899409490202216  1.0000
  C   C1620     1.0  0.7135279596373609  0.024441067899036332  0.3849571796090583  1.0000
  C   C1621     1.0  0.7188101309938276  0.0037687984656159107  0.39049164177283635  1.0000
  C   C1622     1.0  0.7698118095395545  0.08708176201187307  0.414758835738059  1.0000
  C   C1623     1.0  0.7013035623167699  0.05425310016584064  0.4577511129942731  1.0000
  C   C1624     1.0  0.7225614494264415  0.048695484099380154  0.46048316092807845  1.0000
  C   C1625     1.0  0.7447738804801127  0.05959836835920365  0.4476045990273467  1.0000
  C   C1626     1.0  0.7466011562952024  0.07735369670343228  0.43172476162486456  1.0000
  C   C1627     1.0  0.7248837238979609  0.08261016635550733  0.4291349759854847  1.0000
  C   C1628     1.0  0.7034669559099719  0.071981463693999  0.44253669600120055  1.0000
  C   C1629     1.0  0.7750118647876096  0.11394925291575884  0.4028256297293158  1.0000
  C   C1630     1.0  0.7808491673880793  0.11708856870521273  0.38221595346270937  1.0000
  C   C1631     1.0  0.7897012615886878  0.1419295158221284  0.37250081548533104  1.0000
  C   C1632     1.0  0.7947280941774449  0.16493426673935796  0.384033239546338  1.0000
  C   C1633     1.0  0.7889987131829509  0.16198969895892226  0.4047897672136417  1.0000
  C   C1634     1.0  0.7777675981915572  0.13642831935588662  0.41352742555512895  1.0000
  C   C1635     1.0  0.8093312254617907  0.10887670613318164  0.44233018621897013  1.0000
  C   C1636     1.0  0.8367241324335059  0.12006092791310527  0.44752352481654506  1.0000
  C   C1637     1.0  0.8547010228162403  0.11825620928232751  0.4346342550011791  1.0000
  C   C1638     1.0  0.8458008089224444  0.1061284015550637  0.4158357460098389  1.0000
  C   C1639     1.0  0.8190509255511889  0.09696511858725229  0.4100886552554679  1.0000
  C   C1640     1.0  0.8000630150697455  0.09718128376860213  0.42340318225201967  1.0000
  H   H1217     1.0  0.7050765197560368  0.45790474681329485  0.4288473919924526  1.0000
  H   H1218     1.0  0.6556541524689082  0.48675168452964507  0.40035822025718365  1.0000
  H   H1219     1.0  0.6305479118860503  0.4787101630657353  0.43148306869455033  1.0000
  H   H1220     1.0  0.6801941487087262  0.449204850355265  0.4598009137956726  1.0000
  H   H1221     1.0  0.7009270508519252  0.4908060737275146  0.3502084669190685  1.0000
  H   H1222     1.0  0.6677563928910228  0.47282942459177313  0.3218783842012216  1.0000
  H   H1223     1.0  0.6082511370731902  0.4121839166670401  0.3616536979609114  1.0000
  H   H1224     1.0  0.641102527300914  0.4322776224989491  0.3898430480864234  1.0000
  H   H1225     1.0  0.7494877050426095  0.4968705235619461  0.4053190441369882  1.0000
  H   H1226     1.0  0.7796058209551174  0.04281951833751524  0.41510454841053374  1.0000
  H   H1227     1.0  0.7265884281742993  0.0671480539128933  0.38587041175714437  1.0000
  H   H1228     1.0  0.694004456022127  0.019702661611755597  0.377937376715311  1.0000
  H   H1229     1.0  0.7211648313769403  0.03495360612601031  0.47231693630093285  1.0000
  H   H1230     1.0  0.7605635577409585  0.0540891131166521  0.44967581565801434  1.0000
  H   H1231     1.0  0.7247307421421267  0.09615073194990174  0.41733944316489524  1.0000
  H   H1232     1.0  0.687669726877203  0.07744081704592476  0.44018860329213505  1.0000
  H   H1233     1.0  0.7774680635248229  0.09935645170548255  0.373316146699619  1.0000
  H   H1234     1.0  0.7947738459796005  0.1441839975437095  0.3563226861751827  1.0000
  H   H1235     1.0  0.7929254955081317  0.1792402835738615  0.41399704409694194  1.0000
  H   H1236     1.0  0.7751384149856827  0.13489715701747346  0.4298355795429779  1.0000
  H   H1237     1.0  0.7956845798835207  0.11035080312746554  0.4534312342904287  1.0000
  H   H1238     1.0  0.8426406482436124  0.12846889344000176  0.4629444515918482  1.0000
  H   H1239     1.0  0.859221481149089  0.10270861352662741  0.4059462219941326  1.0000
  H   H1240     1.0  0.8137382099090834  0.08820547628105971  0.39486506004985167  1.0000
  C   C1641     1.0  0.7722682005613358  0.49214888046009764  0.68275499350011  1.0000
  C   C1642     1.0  0.74994202926993  0.4780554162788823  0.6955264762545  1.0000
  C   C1643     1.0  0.7251334578551433  0.4759589195750079  0.6898726973276554  1.0000
  C   C1644     1.0  0.7223500054646711  0.4869265335583338  0.6718237423607076  1.0000
  C   C1645     1.0  0.7437875917640812  0.4964348821047244  0.6579386364843632  1.0000
  C   C1646     1.0  0.7685897907097092  0.49991404139943263  0.6638386974477942  1.0000
  H   H1241     1.0  0.7515742894107738  0.47027794071873075  0.7102253836430417  1.0000
  H   H1242     1.0  0.7073967010795216  0.4649438747837052  0.6992818948869144  1.0000
  H   H1243     1.0  0.740991021186972  0.002418086075883532  0.6428068234041828  1.0000
  H   H1244     1.0  0.7849390868918937  0.009236012531839873  0.6530374709860921  1.0000
  C   C1647     1.0  0.7221086081072816  0.03935604035337678  0.6557618704094444  1.0000
  C   C1648     1.0  0.699324937114767  0.01272692440697469  0.6532133867265106  1.0000
  C   C1649     1.0  0.6788121652485333  0.00966210267381778  0.6397963696898893  1.0000
  C   C1650     1.0  0.681013324931185  0.03126427494220188  0.6282807723518786  1.0000
  C   C1651     1.0  0.7043315294616581  0.05687605579800043  0.6301363009877721  1.0000
  C   C1652     1.0  0.7239179554056794  0.060787352484329954  0.6442432136672529  1.0000
  C   C1653     1.0  0.6949261823205809  0.4871612864683246  0.6669348144791611  1.0000
  C   C1654     1.0  0.6801768440963136  0.49206810551870545  0.6862503627771229  1.0000
  C   C1655     1.0  0.6525755716238096  0.4844045522850936  0.6851719228032526  1.0000
  C   C1656     1.0  0.641491295502781  0.49159069703347763  0.7009752751012047  1.0000
  C   C1657     1.0  0.6569555814977097  0.005976750420796735  0.7177484585245952  1.0000
  C   C1658     1.0  0.6841947944033215  0.013522180763541702  0.718568378845155  1.0000
  C   C1659     1.0  0.6957376392366454  0.008217651760638519  0.7027436107179343  1.0000
  C   C1660     1.0  0.6852813346486898  0.4560577299558939  0.6353938870731523  1.0000
  C   C1661     1.0  0.6723866027390879  0.43132097126085733  0.6252305463832293  1.0000
  C   C1662     1.0  0.6529428709807829  0.40801967786875626  0.6354168326045112  1.0000
  C   C1663     1.0  0.6477265867140227  0.41055373659637595  0.6559943851272151  1.0000
  C   C1664     1.0  0.6617662234757822  0.43517078942046244  0.6658150725488445  1.0000
  C   C1665     1.0  0.679665178310898  0.4584596997643483  0.6555936031794788  1.0000
  C   C1666     1.0  0.634560315766372  0.38110552982676515  0.6224510776846155  1.0000
  C   C1667     1.0  0.5797509397408608  0.4094360560724203  0.597243116933676  1.0000
  C   C1668     1.0  0.6030063104441  0.4142074857557675  0.5867570091026371  1.0000
  C   C1669     1.0  0.6192370576893625  0.40368937936264865  0.5937936387193808  1.0000
  C   C1670     1.0  0.6133223493778971  0.3890670480232194  0.6119879153849355  1.0000
  C   C1671     1.0  0.5904007364756771  0.3851553510564137  0.6224740232159744  1.0000
  C   C1672     1.0  0.5744721185069889  0.39575989552129925  0.6154817549598578  1.0000
  C   C1673     1.0  0.6198160403587774  0.35273484539790007  0.6348126002787255  1.0000
  C   C1674     1.0  0.6343098328661142  0.347495786291772  0.6498052104686617  1.0000
  C   C1675     1.0  0.6243029414992896  0.32175525332521004  0.6583654233676397  1.0000
  C   C1676     1.0  0.5995339120104314  0.3004699373979476  0.6517586400383535  1.0000
  C   C1677     1.0  0.5848452015628821  0.30507524017260435  0.6365426933431902  1.0000
  C   C1678     1.0  0.5948065900060533  0.3307541656661093  0.6280620249529233  1.0000
  C   C1679     1.0  0.6357372106453163  0.35507324044596716  0.5902921506340055  1.0000
  C   C1680     1.0  0.6463762400949286  0.3413791027927895  0.5799513645015734  1.0000
  C   C1681     1.0  0.6724568371327045  0.34676037169367846  0.5839805998082044  1.0000
  C   C1682     1.0  0.6887281678293093  0.3674324692687194  0.5971681615312368  1.0000
  C   C1683     1.0  0.6778348260898646  0.3800191560348792  0.6084650114702921  1.0000
  C   C1684     1.0  0.6505039413136969  0.373195885619364  0.6059761861688914  1.0000
  H   H1245     1.0  0.7371235724158621  0.043518963507659505  0.6677180219495465  1.0000
  H   H1246     1.0  0.6595150456107141  0.4906139027707395  0.6390284592404095  1.0000
  H   H1247     1.0  0.6641104264211628  0.027120452438966214  0.618521273013873  1.0000
  H   H1248     1.0  0.7422023609814021  0.08035196211337857  0.6462348857892096  1.0000
  H   H1249     1.0  0.6403833290444265  0.4737140147997048  0.6720027175053076  1.0000
  H   H1250     1.0  0.6199858835581663  0.48685960228968905  0.6999213103607838  1.0000
  H   H1251     1.0  0.6971736325164658  0.024083076825015502  0.7312572576866527  1.0000
  H   H1252     1.0  0.7180631229315239  0.016334167369207737  0.7031030907092245  1.0000
  H   H1253     1.0  0.6999081501544513  0.47385997604609853  0.6275572232630264  1.0000
  H   H1254     1.0  0.6757298465266981  0.4301975202738774  0.609491441573082  1.0000
  H   H1255     1.0  0.6320531477309346  0.3937538300771755  0.6644031575192241  1.0000
  H   H1256     1.0  0.6571411594046482  0.4367837403934384  0.6815434694443576  1.0000
  H   H1257     1.0  0.6084617449651764  0.4253606315321714  0.572472650980647  1.0000
  H   H1258     1.0  0.6374977172991522  0.40765038729605974  0.5849718467629114  1.0000
  H   H1259     1.0  0.5856267785367669  0.37496915945856174  0.6369817178431918  1.0000
  H   H1260     1.0  0.5574177429448318  0.39276777322455975  0.6244228636793944  1.0000
  H   H1261     1.0  0.6541653640947186  0.363580488587737  0.6555140586707678  1.0000
  H   H1262     1.0  0.6359440552371831  0.31824589761444394  0.6699054959390999  1.0000
  H   H1263     1.0  0.565950408114271  0.2886776332024791  0.6306059195295852  1.0000
  H   H1264     1.0  0.5831013291749132  0.33282689412591415  0.6156943835504507  1.0000
  H   H1265     1.0  0.6140278618881408  0.34895758419279205  0.5878721619266819  1.0000
  H   H1266     1.0  0.6332791205241677  0.32507882985554226  0.5694453705433566  1.0000
  H   H1267     1.0  0.7098825294567971  0.37292170424779797  0.6003315854545902  1.0000
  H   H1268     1.0  0.6905975003873362  0.39418203600913787  0.620344677905864  1.0000
  C   C1685     1.0  0.7852401300981238  0.2181878491894187  0.5111606614874494  1.0000
  C   C1686     1.0  0.7627002468302359  0.206535348310145  0.4984962578794011  1.0000
  C   C1687     1.0  0.7374127051146526  0.18713432831310264  0.5061279416093873  1.0000
  C   C1688     1.0  0.735104101892381  0.1778501127217037  0.5263353062261669  1.0000
  C   C1689     1.0  0.7574751706064765  0.1929637760861719  0.5390150068551208  1.0000
  C   C1690     1.0  0.7819401895421465  0.212864762402684  0.5315240557174697  1.0000
  H   H1269     1.0  0.7649823246855336  0.21082680283444036  0.4822691781023536  1.0000
  H   H1270     1.0  0.7192494400696381  0.17792780530475955  0.49607320976789626  1.0000
  H   H1271     1.0  0.7560869503415905  0.18829402724109023  0.5548566017053379  1.0000
  H   H1272     1.0  0.798928466614473  0.22259197649313744  0.5423619950293459  1.0000
  C   C1691     1.0  0.7333419576955795  0.13029904267123418  0.552597231717527  1.0000
  C   C1692     1.0  0.7108263325755919  0.13376284844182784  0.5510507029039342  1.0000
  C   C1693     1.0  0.6884920201095065  0.11759216102305278  0.5632577255868938  1.0000
  C   C1694     1.0  0.6888456558660283  0.09976937416010208  0.5774334748604515  1.0000
  C   C1695     1.0  0.7125346592570057  0.09829003583087709  0.5800783297750928  1.0000
  C   C1696     1.0  0.7344291570908211  0.11366511259512589  0.5674888815694837  1.0000
  C   C1697     1.0  0.7073471519876239  0.15074570346837698  0.5331654260606798  1.0000
  C   C1698     1.0  0.693911061788289  0.12646184215162512  0.5166813563324122  1.0000
  C   C1699     1.0  0.6657804048207223  0.1083151796546773  0.5141818231163774  1.0000
  C   C1700     1.0  0.6558236643713738  0.08667242055771779  0.5004252122156433  1.0000
  C   C1701     1.0  0.6738613624483235  0.08152864406787763  0.4896836441354747  1.0000
  C   C1702     1.0  0.7017878274994586  0.09886162979267182  0.49234073666684086  1.0000
  C   C1703     1.0  0.7116150224665672  0.12084207259846934  0.5055527736233227  1.0000
  C   C1704     1.0  0.6957324970364411  0.17832342101632745  0.5577844515067396  1.0000
  C   C1705     1.0  0.6817682425142474  0.19046017773001697  0.5645487941513573  1.0000
  C   C1706     1.0  0.6601888562464571  0.18897648172682843  0.5529918948569009  1.0000
  C   C1707     1.0  0.6552005534515836  0.17711879591045052  0.5335662080084161  1.0000
  C   C1708     1.0  0.6699947448646308  0.16497915195380347  0.527136870121639  1.0000
  C   C1709     1.0  0.6895704659012591  0.16418219424804548  0.5394647392697561  1.0000
  C   C1710     1.0  0.6394175263333145  0.19657653041306591  0.5636202649823653  1.0000
  C   C1711     1.0  0.5988832116760429  0.1267713934627195  0.6052908796323041  1.0000
  C   C1712     1.0  0.6160557755813679  0.15232082607207817  0.6130984791027085  1.0000
  C   C1713     1.0  0.6306239558346315  0.17497193629154484  0.6004922041741032  1.0000
  C   C1714     1.0  0.6261772988123221  0.17208692916041743  0.5795215182141157  1.0000
  C   C1715     1.0  0.6086720904931999  0.145942627277723  0.572185066987615  1.0000
  C   C1716     1.0  0.5955859060149058  0.1234690345986281  0.5846353123029797  1.0000
  C   C1717     1.0  0.6180821795730821  0.19949605021133313  0.5490467931652525  1.0000
  C   C1718     1.0  0.6274721472803781  0.21656957220001735  0.5319844960467394  1.0000
  C   C1719     1.0  0.6107612924794166  0.22441904209429286  0.5224131500658771  1.0000
  C   C1720     1.0  0.5842335754196889  0.21463252718921383  0.5289342700780899  1.0000
  C   C1721     1.0  0.5738258745674549  0.19563772284926217  0.5444209740432888  1.0000
  C   C1722     1.0  0.5904678231038526  0.18797296180479622  0.5546837453691009  1.0000
  C   C1723     1.0  0.6422346099734212  0.2348516932045689  0.5878507460974135  1.0000
  C   C1724     1.0  0.6534329911152464  0.26154633589065307  0.5944605888308809  1.0000
  C   C1725     1.0  0.6778286532961757  0.28180397913508726  0.5862965687733676  1.0000
  C   C1726     1.0  0.6908952079948811  0.27447058989249573  0.5718255869963248  1.0000
  C   C1727     1.0  0.6799128789441283  0.2475749175241537  0.5656593578691304  1.0000
  C   C1728     1.0  0.6552454515194417  0.22698567985059473  0.573447071212357  1.0000
  H   H1273     1.0  0.7506977508655502  0.14095635061995748  0.5421111238864881  1.0000
  H   H1274     1.0  0.6692884055246752  0.11786514330046428  0.5615903503081437  1.0000
  H   H1275     1.0  0.6710943764276251  0.08723278779687715  0.586723355656644  1.0000
  H   H1276     1.0  0.7532450228172278  0.11270225235212421  0.569127192508513  1.0000
  H   H1277     1.0  0.6513779529812148  0.11070139900644665  0.5236980998219782  1.0000
  H   H1278     1.0  0.6337565313364467  0.07240419146067527  0.49977814823132094  1.0000
  H   H1279     1.0  0.7165125088655789  0.09559404202325278  0.4851817308828493  1.0000
  H   H1280     1.0  0.7339256434382931  0.13294877736875527  0.5073471141755924  1.0000
  H   H1281     1.0  0.7118912357425214  0.17993046434791535  0.5679263763673944  1.0000
  H   H1282     1.0  0.6869556869926535  0.2001358185185081  0.5793563103883314  1.0000
  H   H1283     1.0  0.6385212052519412  0.17503884241638287  0.5242304361495057  1.0000
  H   H1284     1.0  0.6666123087875386  0.15654901451100206  0.5119209234264759  1.0000
  H   H1285     1.0  0.6180037172393449  0.15508071797169856  0.6295779597247044  1.0000
  H   H1286     1.0  0.6451953875851392  0.194763725928648  0.6071861805225535  1.0000
  H   H1287     1.0  0.6048937816914062  0.14277783710810094  0.5557728932576053  1.0000
  H   H1288     1.0  0.5822427737090673  0.10365811582365861  0.5781111328865858  1.0000
  H   H1289     1.0  0.6481350456472187  0.22573046565926405  0.5268707019578753  1.0000
  H   H1290     1.0  0.618078641377681  0.2393508849100722  0.5101663551285618  1.0000
  H   H1291     1.0  0.5529873254267809  0.18828992389618526  0.5490605604840679  1.0000
  H   H1292     1.0  0.5816257609046681  0.17397983412480947  0.5674445202088568  1.0000
  H   H1293     1.0  0.6224848494077435  0.21990979901515847  0.5934616933657215  1.0000
  H   H1294     1.0  0.6421006731894427  0.2671125485412505  0.6051807410817811  1.0000
  H   H1295     1.0  0.7088349546817706  0.2895022599126489  0.5639078489753974  1.0000
  H   H1296     1.0  0.6900456471371301  0.24335597117803429  0.5532963055729295  1.0000
  C   C1729     1.0  0.7069034617816328  0.08073840266231269  0.6168477789267605  1.0000
  C   C1730     1.0  0.7123815612213609  0.07640392488514303  0.594290791898825  1.0000
  H   H1297     1.0  0.686970402012094  0.08026231852840383  0.6170680560278065  1.0000
  H   H1298     1.0  0.7234347021885179  0.10183869129791435  0.6221573748832212  1.0000
  H   H1299     1.0  0.6961682827743164  0.05624659029550734  0.5887456218204125  1.0000
  H   H1300     1.0  0.7325287065249871  0.07739210632787868  0.5928421640190299  1.0000
  C   C1731     1.0  0.6883862403984126  0.3122791601666416  0.5913507044806983  1.0000
  C   C1732     1.0  0.6826349924390254  0.328678799095269  0.5750731445346612  1.0000
  H   H1301     1.0  0.6799390888672326  0.31426939150724714  0.6061107999528639  1.0000
  H   H1302     1.0  0.710707638635649  0.3215303376496784  0.5945952026148534  1.0000
  H   H1303     1.0  0.6683397747456717  0.3151900682914842  0.5628003446618055  1.0000
  H   H1304     1.0  0.7020835255139631  0.3423972208306567  0.566304892151362  1.0000
  C   C1733     1.0  0.6768784159734071  0.04114487298029707  0.4726228767190522  1.0000
  C   C1734     1.0  0.6597394273362849  0.05515980580843723  0.4765955130483312  1.0000
  H   H1305     1.0  0.6850266645930919  0.03953628372461002  0.48800097183581864  1.0000
  H   H1306     1.0  0.6621517129581809  0.019528984778938583  0.46822957231485907  1.0000
  H   H1307     1.0  0.6400763692283193  0.03965920729426242  0.4836734446215212  1.0000
  H   H1308     1.0  0.6527713922084203  0.05978423545654539  0.46240293705177726  1.0000
  C   C1735     1.0  0.5325691823369103  0.39348421548471546  0.5788958700590617  1.0000
  C   C1736     1.0  0.5605024427610402  0.41822250764224495  0.5869176278221496  1.0000
  H   H1309     1.0  0.5206271158039493  0.40328453617400034  0.5735908632088732  1.0000
  H   H1310     1.0  0.5204432957753975  0.3806431010261126  0.5920084763796547  1.0000
  H   H1311     1.0  0.5710557594259219  0.43318490540004667  0.5744245508482482  1.0000
  H   H1312     1.0  0.5549782374725784  0.429303696425397  0.598266487632285  1.0000
  C   C1737     1.0  0.6135184824612099  0.4173982140540318  0.4558558121040241  1.0000
  C   C1738     1.0  0.6309339922078095  0.44680142903323977  0.46400453514063156  1.0000
  H   H1313     1.0  0.6269657274435151  0.4096543094393126  0.4506181121458217  1.0000
  H   H1314     1.0  0.6017374104402079  0.41694711523714867  0.4416464093844735  1.0000
  H   H1315     1.0  0.6174669728320089  0.4560240310239359  0.465723920290462  1.0000
  H   H1316     1.0  0.641268168131153  0.4476562034574673  0.47866825938108964  1.0000
  C   C1739     1.0  0.9063678209893534  0.15163049696032352  0.42951128269977146  1.0000
  C   C1740     1.0  0.8835440575043445  0.12594308988504407  0.4411951472677474  1.0000
  H   H1317     1.0  0.9024528888846219  0.149751424903753  0.4129507278669739  1.0000
  H   H1318     1.0  0.9255105963880536  0.15114235593764935  0.430820707689322  1.0000
  H   H1319     1.0  0.8863014469031745  0.12834516231870094  0.4578949049907894  1.0000
  H   H1320     1.0  0.8866541576405101  0.10840533956637444  0.43690586260571485  1.0000
  C   C1741     1.0  0.573413861057677  0.25223674544575164  0.5359020631007569  1.0000
  C   C1742     1.0  0.5678767808981608  0.22833802766750116  0.5213913090693587  1.0000
  H   H1321     1.0  0.5656536572231535  0.24400154854201211  0.5513811185555028  1.0000
  H   H1322     1.0  0.595707204098605  0.26619648965551596  0.5379411559875225  1.0000
  H   H1323     1.0  0.5732926313322266  0.23495171961344027  0.5052774272470153  1.0000
  H   H1324     1.0  0.545756240581886  0.21322649388397483  0.521063952821971  1.0000
  C   C1743     1.0  0.8144616978809542  0.23551195367706146  0.5025193743776698  1.0000
  C   C1744     1.0  0.823196691074514  0.21512100026066305  0.4956341852678951  1.0000
  H   H1325     1.0  0.8292444093753478  0.2504165413176028  0.5137443283184668  1.0000
  H   H1326     1.0  0.814551804118671  0.24854409037209316  0.4891926097643935  1.0000
  H   H1327     1.0  0.808512480160884  0.20122577034145353  0.48397785533755006  1.0000
  H   H1328     1.0  0.8217480080848151  0.2009598416687424  0.5080599553498103  1.0000
  C   C1745     1.0  0.5532958021643087  0.09672302320388161  0.6231379139232932  1.0000
  C   C1746     1.0  0.5825414418138493  0.10186690872268223  0.6189465301950589  1.0000
  H   H1329     1.0  0.540581408283428  0.07382932403873936  0.6242270618117979  1.0000
  H   H1330     1.0  0.5453057210114434  0.10196545197710861  0.6094057782560086  1.0000
  H   H1331     1.0  0.5819159067143005  0.08364918847982356  0.6117554006671647  1.0000
  H   H1332     1.0  0.5929419499389277  0.10359282101176154  0.6338580661741934  1.0000
  C   C1747     1.0  0.5621483860696714  0.25963400727523517  0.6733855681952066  1.0000
  C   C1748     1.0  0.587947154202078  0.27080054233541234  0.659971610562766  1.0000
  H   H1333     1.0  0.5450092444595283  0.25942470294757847  0.6652536718815957  1.0000
  H   H1334     1.0  0.5646213145402144  0.27218651753036727  0.6870442781621426  1.0000
  H   H1335     1.0  0.5830917477448975  0.2571007763220461  0.6466662617787577  1.0000
  H   H1336     1.0  0.6043386326468487  0.2696424844539364  0.6684308631237645  1.0000
  C   C1749     1.0  0.8152577979368886  0.02995226380742472  0.699306370120364  1.0000
  C   C1750     1.0  0.8020609462562631  0.0016987962112942991  0.6891797422806152  1.0000
  H   H1337     1.0  0.8050191280333986  0.02808097627186995  0.7137911192162222  1.0000
  H   H1338     1.0  0.8104351410693936  0.04405832017156688  0.6901403951935099  1.0000
  H   H1339     1.0  0.8147119961426361  0.002721426169662366  0.6758468588589763  1.0000
  H   H1340     1.0  0.8022224553281081  0.4863409830737004  0.699662790707473  1.0000
  C   C1751     1.0  0.645256273220699  0.014931133062293836  0.7349392506187186  1.0000
  C   C1752     1.0  0.6571213869506968  0.04594064742466355  0.7375718679166351  1.0000
  H   H1341     1.0  0.6233775934862904  0.007096581763677914  0.7320878859218466  1.0000
  H   H1342     1.0  0.6462762399705341  0.005599054154629504  0.749732999536877  1.0000
  H   H1343     1.0  0.6613914814264139  0.05628480466621098  0.72255631219534  1.0000
  H   H1344     1.0  0.6414667138078661  0.05005235890545538  0.7444081065595107  1.0000
  C   C1753     1.0  0.612322570975419  0.13511110100552678  0.7516772508940253  1.0000
  C   C1754     1.0  0.6032485307392471  0.12507135380474318  0.7735275155561054  1.0000
  H   H1345     1.0  0.6164594030603195  0.12010960880857889  0.7436707901518432  1.0000
  H   H1346     1.0  0.6315996656911723  0.15439567315364747  0.7523824435577905  1.0000
  H   H1347     1.0  0.5911391866884486  0.1341470719078802  0.7789778441049007  1.0000
  H   H1348     1.0  0.5888501112221209  0.1028601714009952  0.7731450900334563  1.0000
  C   C1755     1.0  0.8876546993153033  0.16469458098208373  0.7696328940334468  1.0000
  C   C1756     1.0  0.8660925382286893  0.16745992095827741  0.7566610203051886  1.0000
  H   H1349     1.0  0.8800286557400768  0.15859343156475808  0.7855708601153716  1.0000
  H   H1350     1.0  0.9063144189834005  0.18521336439986993  0.7716536304951247  1.0000
  H   H1351     1.0  0.8673254931850605  0.16284265230451445  0.740433940528141  1.0000
  H   H1352     1.0  0.8723305184688388  0.18939656055094578  0.7562204661030968  1.0000
  C   C1757     1.0  0.878492128777463  0.3954647414652275  0.09392355539241508  1.0000
  C   C1758     1.0  0.8903051587410171  0.4257738856407379  0.08749375859501088  1.0000
  H   H1353     1.0  0.8574884594926351  0.38784744829303064  0.0998820509757065  1.0000
  H   H1354     1.0  0.8905338218118969  0.39452996770993304  0.10675362573687497  1.0000
  H   H1355     1.0  0.9121751607112484  0.4334343325337866  0.08321043977113166  1.0000
  H   H1356     1.0  0.8807257173206613  0.42748407502691904  0.07296541298957077  1.0000
  C   C1759     1.0  0.8489525863500242  0.14634682197102844  0.10000228556002742  1.0000
  C   C1760     1.0  0.8513052782359624  0.12351880858632555  0.08954432424745547  1.0000
  H   H1357     1.0  0.847701808380705  0.14322161351787868  0.11678602392784294  1.0000
  H   H1358     1.0  0.8289014347851286  0.14395144884059224  0.0950091849661114  1.0000
  H   H1359     1.0  0.8550756298167593  0.12737478429709398  0.0732681410332998  1.0000
  H   H1360     1.0  0.8312619590490522  0.10501620539952473  0.09070246170024607  1.0000
  C   C1761     1.0  0.525679108616507  0.36050452054179216  0.13220572694147364  1.0000
  C   C1762     1.0  0.9946088366705497  0.3507319536282658  0.13323215704426397  1.0000
  H   H1361     1.0  0.5379747660721296  0.3830631583677742  0.13213061856882538  1.0000
  H   H1362     1.0  0.5287312033907431  0.35364350348243717  0.11716493113568374  1.0000
  H   H1363     1.0  0.9920484248242672  0.36868968742757857  0.1298304055351954  1.0000
  H   H1364     1.0  0.9878118000263718  0.34574738945325095  0.14947927591869817  1.0000
  C   C1763     1.0  0.5140384163357061  0.19573329211376136  0.18840881739249718  1.0000
  C   C1764     1.0  0.9867809062918224  0.18864981661609445  0.17668212116598453  1.0000
  H   H1365     1.0  0.5283778131749634  0.1933288375170086  0.1780970955997863  1.0000
  H   H1366     1.0  0.5090667114545536  0.18115108918888814  0.20081623104932528  1.0000
  H   H1367     1.0  0.9902233623708938  0.20548865050518528  0.16592831546909123  1.0000
  H   H1368     1.0  0.9719885359201588  0.18786173000273695  0.18800803544476088  1.0000
  C   C1765     1.0  0.7516705607592702  0.40644883889197575  0.21076847285074599  1.0000
  C   C1766     1.0  0.7520570387522042  0.41512238941569357  0.18867651525835155  1.0000
  H   H1369     1.0  0.7666795863679431  0.4239796597153299  0.22006141305111962  1.0000
  H   H1370     1.0  0.757742321724392  0.3904836965737695  0.21211002158419917  1.0000
  H   H1371     1.0  0.7388923479454055  0.39744615120583565  0.17818581832104088  1.0000
  H   H1372     1.0  0.743992214610586  0.4296746439960825  0.18743286745869664  1.0000
  C   C1767     1.0  0.6114048535124037  0.43131388540015525  0.32400161070296957  1.0000
  C   C1768     1.0  0.6175225319597875  0.4332069762613756  0.30081132700952684  1.0000
  H   H1373     1.0  0.6012014650248383  0.443969775002285  0.32615849065071056  1.0000
  H   H1374     1.0  0.5952882430343234  0.40993859975739655  0.32807673707231855  1.0000
  H   H1375     1.0  0.6323022013407511  0.45450991718803035  0.29643943843460213  1.0000
  H   H1376     1.0  0.5984703496345433  0.4296826360519833  0.293084801749924  1.0000
  C   C1769     1.0  0.9587714058656555  0.365323030588626  0.3946860849052519  1.0000
  C   C1770     1.0  0.9776791108199787  0.3533579762019312  0.4008645516491711  1.0000
  H   H1377     1.0  0.9474202517350803  0.3660778412810657  0.408321849340829  1.0000
  H   H1378     1.0  0.9717770584541375  0.3879147172415  0.3913130917954868  1.0000
  H   H1379     1.0  0.9964924284268281  0.36995509413519956  0.40851153240006294  1.0000
  H   H1380     1.0  0.983683025772486  0.34729440703654435  0.38704828236690364  1.0000
  C   C1771     1.0  0.8889705286045725  0.4413217541299022  0.2417174055476941  1.0000
  C   C1772     1.0  0.8681547037541776  0.44314290589801203  0.2561256695390224  1.0000
  H   H1381     1.0  0.9105086871476998  0.45333723215475347  0.24837007993969817  1.0000
  H   H1382     1.0  0.8843827234756025  0.41996181533228055  0.23975173836127767  1.0000
  H   H1383     1.0  0.8518782192824608  0.44379462256514507  0.2473558874536327  1.0000
  H   H1384     1.0  0.8780438388404571  0.46332130169986957  0.26412907087702314  1.0000
  C   C1773     1.0  0.9544217557697631  0.32442021030609325  0.2651876247237159  1.0000
  C   C1774     1.0  0.9468437679135905  0.30763968592262003  0.24529690843968982  1.0000
  H   H1385     1.0  0.9658634911845706  0.3465822867668917  0.2620272602045436  1.0000
  H   H1386     1.0  0.969528801901764  0.32058060565062396  0.27405377804081316  1.0000
  H   H1387     1.0  0.9340566251423758  0.28602944671809266  0.2489727825633932  1.0000
  H   H1388     1.0  0.9338846221113299  0.31211347822895424  0.2353048943839136  1.0000
  C   C1775     1.0  0.6867735110027003  0.27695516113513885  0.2901232985025292  1.0000
  C   C1776     1.0  0.6648551342474194  0.28127163486980816  0.3014920444398423  1.0000
  H   H1389     1.0  0.6838426873057877  0.2777394904892767  0.2736300505617181  1.0000
  H   H1390     1.0  0.6818496807218123  0.2556341534368293  0.29315669774818204  1.0000
  H   H1391     1.0  0.6456570385605853  0.2612641482843427  0.30389520642416934  1.0000
  H   H1392     1.0  0.6711933590735301  0.2888102778480782  0.3173183422691535  1.0000
  C   C1777     1.0  0.7934144750380128  0.198323215608253  0.3576183438459179  1.0000
  C   C1778     1.0  0.8102904882118943  0.19315115501989077  0.37410394327627616  1.0000
  H   H1393     1.0  0.7874615559813205  0.18297452677025614  0.3453333063563375  1.0000
  H   H1394     1.0  0.7740975708181175  0.1961816871334814  0.36375397893130035  1.0000
  H   H1395     1.0  0.8171452590879081  0.20913157696882692  0.3862987283425114  1.0000
  H   H1396     1.0  0.8298934478481087  0.19690161120559047  0.36738243229019524  1.0000
  C   C1779     1.0  0.7585553313273004  0.39905790709831523  0.3790081681787285  1.0000
  C   C1780     1.0  0.7300058978720005  0.3924984443960872  0.3701389554574501  1.0000
  H   H1397     1.0  0.7561219268513465  0.39002677994709506  0.3945224067815581  1.0000
  H   H1398     1.0  0.7717409644864185  0.4214740929084313  0.38190389423622767  1.0000
  H   H1399     1.0  0.7299809416310609  0.3919392764485337  0.35329540573789225  1.0000
  H   H1400     1.0  0.7137356193300509  0.3713614555272569  0.37397391859857554  1.0000
  C   C1781     1.0  0.9478938902210489  0.006894951391733372  0.7963093687913588  1.0000
  C   C1782     1.0  0.9695351664635979  0.03559379819968699  0.7884237545143342  1.0000
  H   H1401     1.0  0.9580789871421238  0.4948526936790071  0.7998995795979889  1.0000
  H   H1402     1.0  0.9347889373561358  0.4952174922300487  0.7835516533557841  1.0000
  H   H1403     1.0  0.9817942110140712  0.0478953311925798  0.8018698358906772  1.0000
  H   H1404     1.0  0.984447580848397  0.032898062307870596  0.7791017499742391  1.0000
  C   C1783     1.0  0.8013889657610096  0.04181993226828747  0.8291092410179286  1.0000
  C   C1784     1.0  0.7839122911621096  0.013180768513545398  0.8378958498263149  1.0000
  H   H1405     1.0  0.8141487012542233  0.04141515988387312  0.8164769611537829  1.0000
  H   H1406     1.0  0.8165007669592732  0.05529874558352483  0.8411740014064634  1.0000
  H   H1407     1.0  0.7708212829849461  0.01410602333365815  0.8500967537009124  1.0000
  H   H1408     1.0  0.7699307409966906  0.4983200374437245  0.8256857677391737  1.0000
  C   C1785     1.0  0.7557111022974208  0.28171135311075923  0.8593912236033767  1.0000
  C   C1786     1.0  0.7719073799215775  0.2720471177786961  0.8461975430719822  1.0000
  H   H1409     1.0  0.7398529133593387  0.2820368016208704  0.8495445312462071  1.0000
  H   H1410     1.0  0.7443030011343921  0.2666295535641815  0.871794048153933  1.0000
  H   H1411     1.0  0.7897881153196309  0.2742028333016193  0.8549107261800198  1.0000
  H   H1412     1.0  0.7810868197763883  0.2853469008429325  0.8330910555597513  1.0000
  C   C1787     1.0  0.9143240730643536  0.372304872790029  0.9590130722534727  1.0000
  C   C1788     1.0  0.9118438536810062  0.3980507981471463  0.9549287676715801  1.0000
  H   H1413     1.0  0.9362983125425004  0.3788604619719826  0.9578382610478946  1.0000
  H   H1414     1.0  0.9033100679752558  0.35672457870969737  0.9468886534834049  1.0000
  H   H1415     1.0  0.9302637407062551  0.41277869002212414  0.9458224511262592  1.0000
  H   H1416     1.0  0.9133700640438305  0.40888914336480314  0.9695726057848603  1.0000
  C   C1789     1.0  0.9885503186616854  0.05728997580346216  0.07383657833016546  1.0000
  C   C1790     1.0  0.516989560812364  0.08130192596965909  0.06743967012770909  1.0000
  H   H1417     1.0  0.992192765225794  0.04136818625972229  0.08077438919185675  1.0000
  H   H1418     1.0  0.9764335323802399  0.04704529890517513  0.060114844637096876  1.0000
  H   H1419     1.0  0.5275781035602406  0.095087526666925  0.08062998531450444  1.0000
  H   H1420     1.0  0.5294915078832051  0.07149951348978996  0.06435028378554042  1.0000
  C   C1791     1.0  0.6179594869894014  0.11832954498319469  0.9134310093578787  1.0000
  C   C1792     1.0  0.6434312529876184  0.11495216384325894  0.9105719961505538  1.0000
  H   H1421     1.0  0.6015576112506212  0.09903951798569066  0.9203192578718347  1.0000
  H   H1422     1.0  0.609469180227358  0.12024026550336872  0.898898839497212  1.0000
  H   H1423     1.0  0.6371671110091213  0.09290084041840294  0.9131311877481217  1.0000
  H   H1424     1.0  0.658682769853194  0.12528852585487465  0.9232302809502397  1.0000
  C   C1793     1.0  0.9543702845240557  0.08638533389185228  0.9180415314589365  1.0000
  C   C1794     1.0  0.9476817367560838  0.08079673441840635  0.9411507409415776  1.0000
  H   H1425     1.0  0.9567686644424  0.1066999651386147  0.9143289444850589  1.0000
  H   H1426     1.0  0.9743910710902913  0.08820910900755442  0.9149943648944685  1.0000
  H   H1427     1.0  0.9421822902798848  0.05961180533343678  0.944800610129741  1.0000
  H   H1428     1.0  0.9285549040745615  0.08136925178569099  0.9434667099067406  1.0000
  C   C1795     1.0  0.6872411741538267  0.3285448403994382  0.9299502622342302  1.0000
  C   C1796     1.0  0.7114114752194373  0.3524132761393281  0.9415193991454113  1.0000
  H   H1429     1.0  0.6935141293802903  0.32813914555395296  0.9141622069571839  1.0000
  H   H1430     1.0  0.6702566468572603  0.33293645892938395  0.9285750600547839  1.0000
  H   H1431     1.0  0.7133821757499345  0.34919561577068564  0.9578765036001595  1.0000
  H   H1432     1.0  0.7081124105510743  0.37065060390665494  0.9414260873178849  1.0000
  C   C1797     1.0  0.5247811063858631  0.26956981651817147  0.03449080491751517  1.0000
  C   C1798     1.0  0.5213806542722911  0.25638707204365724  0.013288996268659745  1.0000
  H   H1433     1.0  0.5365903796891454  0.26440216496904834  0.04558787576353832  1.0000
  H   H1434     1.0  0.5386922224480406  0.29193495024430677  0.03256980503214411  1.0000
  H   H1435     1.0  0.5375676716870905  0.27116783692345886  0.0024000126490608684  1.0000
  H   H1436     1.0  0.5018571392647652  0.25387948479654876  0.006573039952208148  1.0000
  C   C1799     1.0  0.7454672188419049  0.25580478848563143  0.013109944638955425  1.0000
  C   C1800     1.0  0.7513354573106833  0.23403946092205408  0.022925645231769508  1.0000
  H   H1437     1.0  0.7467127612788669  0.27025166075365303  0.02512000288073017  1.0000
  H   H1438     1.0  0.7616965463908992  0.26926480049100737  0.0019701663616031873  1.0000
  H   H1439     1.0  0.7447539823534477  0.216285520504886  0.012812876492961587  1.0000
  H   H1440     1.0  0.7387042026464075  0.2256688218265  0.036950718849403374  1.0000
  C   C1801     1.0  0.5227944870209925  0.729948159706325  0.012373530755521372  1.0000
  C   C1802     1.0  0.5340397910975044  0.7205646509577458  0.02732935161017867  1.0000
  C   C1803     1.0  0.5336950566735259  0.6960673931142404  0.024071239127417227  1.0000
  C   C1804     1.0  0.5242727215193995  0.6815979181701766  0.005846431459174628  1.0000
  C   C1805     1.0  0.51505798684542  0.6924775432655403  0.9905631778720253  1.0000
  C   C1806     1.0  0.5135495610040673  0.715904658080072  0.9941610371891081  1.0000
  H   H1441     1.0  0.5438466716141035  0.731330089368007  0.04120986838025117  1.0000
  H   H1442     1.0  0.5438227585184342  0.689452877003012  0.03557444587849372  1.0000
  H   H1443     1.0  0.5084199576707719  0.6822039823243751  0.9760845475845294  1.0000
  H   H1444     1.0  0.5047836551808792  0.7229579600654774  0.9827203952535369  1.0000
  C   C1807     1.0  0.9796671018682884  0.626915688586745  0.9867771651977989  1.0000
  C   C1808     1.0  0.5073632893555542  0.6348843299102988  0.9852994729782826  1.0000
  C   C1809     1.0  0.5150895832754605  0.6235275258486819  0.9696766255270207  1.0000
  C   C1810     1.0  0.99635810160288  0.6051736432122102  0.9559949700287258  1.0000
  C   C1811     1.0  0.9693572376140647  0.5993916516816856  0.9566940438841285  1.0000
  C   C1812     1.0  0.9613413322719556  0.6106359522771152  0.9719772974712779  1.0000
  C   C1813     1.0  0.5297753293298956  0.6575641150816826  0.0005919047779756603  1.0000
  C   C1814     1.0  0.525530442366974  0.6365703184043071  0.018375852303708386  1.0000
  C   C1815     1.0  0.537957480445572  0.6204131287151559  0.01720272377042994  1.0000
  C   C1816     1.0  0.5344742776416547  0.6018850852013798  0.032242142844338344  1.0000
  C   C1817     1.0  0.5187515519872089  0.5994881720261861  0.04901807973149186  1.0000
  C   C1818     1.0  0.5047490936837377  0.6139200776039963  0.049970931163724405  1.0000
  C   C1819     1.0  0.5072032600549946  0.6313570010376579  0.03424865307657375  1.0000
  C   C1820     1.0  0.5655797834746752  0.6862819358584576  0.9723138319312091  1.0000
  C   C1821     1.0  0.5921105082844987  0.7005802244915564  0.9646209601175993  1.0000
  C   C1822     1.0  0.6145910599120344  0.7034981135913001  0.9754971419817404  1.0000
  C   C1823     1.0  0.6103306173812906  0.6933527867397118  0.9954138632013066  1.0000
  C   C1824     1.0  0.5841176712151624  0.6804768289345527  0.00350598726056206  1.0000
  C   C1825     1.0  0.5609202836160985  0.6750377660580685  0.9916247911228993  1.0000
  C   C1826     1.0  0.6438302874014384  0.7157372458698017  0.964463400802268  1.0000
  C   C1827     1.0  0.6239616634259392  0.6428235880039832  0.9271662044293445  1.0000
  C   C1828     1.0  0.6217702718647965  0.6644265181032138  0.9191306793474415  1.0000
  C   C1829     1.0  0.6267953315109871  0.6868433721702881  0.9306049747290054  1.0000
  C   C1830     1.0  0.6362264850108427  0.6892064471652171  0.9504452108440418  1.0000
  C   C1831     1.0  0.636351121958722  0.6665703696511164  0.9591400375269922  1.0000
  C   C1832     1.0  0.6308498928254365  0.6439143072932019  0.9473200294729532  1.0000
  C   C1833     1.0  0.6702550747046045  0.7245942920887521  0.9785901996089265  1.0000
  C   C1834     1.0  0.6744164690906445  0.7385775373944404  0.9967217584887665  1.0000
  C   C1835     1.0  0.6977505656301377  0.7481766994766567  0.008400236654343345  1.0000
  C   C1836     1.0  0.7182840477938238  0.7442047938106302  0.0017728347919163667  1.0000
  C   C1837     1.0  0.716278288069501  0.7320391292187786  0.9831349445200886  1.0000
  C   C1838     1.0  0.6924406717236428  0.7221526494948203  0.9715550996942737  1.0000
  C   C1839     1.0  0.6723554962158498  0.755322760950863  0.9378022230652622  1.0000
  C   C1840     1.0  0.6843368257772771  0.7822939430130905  0.9315273850896351  1.0000
  C   C1841     1.0  0.6764195907339406  0.7997449679588631  0.9394604201314685  1.0000
  C   C1842     1.0  0.656883641406145  0.789886483915907  0.954532574830116  1.0000
  C   C1843     1.0  0.6463224271410283  0.7635155488875671  0.9622392139625406  1.0000
  C   C1844     1.0  0.6535304784951345  0.7455272020703854  0.9538885702499744  1.0000
  H   H1445     1.0  0.9723186142704752  0.6349890863212884  0.9991830491525363  1.0000
  H   H1446     1.0  0.5367119353571677  0.6300480617856842  0.9672336912883382  1.0000
  H   H1447     1.0  0.5034490292261158  0.5967786112324197  0.9448220259590094  1.0000
  H   H1448     1.0  0.9397196266446345  0.605255368754352  0.9727849801751128  1.0000
  H   H1449     1.0  0.5503192282353904  0.6214458490622646  0.004151521542793857  1.0000
  H   H1450     1.0  0.5445739137713255  0.5903203151113713  0.03110909250583352  1.0000
  H   H1451     1.0  0.9909688563811421  0.6111572325050509  0.06245284131236454  1.0000
  H   H1452     1.0  0.9954181730215736  0.6415613061353691  0.03545880040044463  1.0000
  H   H1453     1.0  0.5487344649744648  0.6836315415868  0.962727188929441  1.0000
  H   H1454     1.0  0.5950679321367893  0.708314510348522  0.9492413352987426  1.0000
  H   H1455     1.0  0.6264627090540887  0.6941622116692302  0.0050433378616114855  1.0000
  H   H1456     1.0  0.5815272414308726  0.6723225015628669  0.018762255051793058  1.0000
  H   H1457     1.0  0.6170037093819453  0.664596215426799  0.9032646092637747  1.0000
  H   H1458     1.0  0.6253343994025347  0.7036973659699589  0.9233863105634805  1.0000
  H   H1459     1.0  0.6421955267450044  0.666626499052197  0.9749999888022967  1.0000
  H   H1460     1.0  0.6317971265220145  0.6266230365180726  0.9535092041315065  1.0000
  H   H1461     1.0  0.6583870973898529  0.7422736222686769  0.001890621852892238  1.0000
  H   H1462     1.0  0.6985776385159355  0.7584715168871448  0.022596912252500323  1.0000
  H   H1463     1.0  0.7338324730155119  0.7315337152966686  0.9767652650148448  1.0000
  H   H1464     1.0  0.6921457203141855  0.7142060643174066  0.9568546626036414  1.0000
  H   H1465     1.0  0.6801858387758885  0.7430872004331025  0.9311434298648953  1.0000
  H   H1466     1.0  0.6985658417272195  0.7890374734433568  0.9190450160303677  1.0000
  H   H1467     1.0  0.6516332231246853  0.8043049315200788  0.9617282934642815  1.0000
  H   H1468     1.0  0.6304716048120781  0.756787271086653  0.973724217258739  1.0000
  C   C1845     1.0  0.8030096345710227  0.5028703901271534  0.8468323694395795  1.0000
  C   C1846     1.0  0.8113119233571174  0.9875965434899416  0.8353014750806632  1.0000
  C   C1847     1.0  0.8324739364236206  0.9839592587134838  0.8413805111886936  1.0000
  C   C1848     1.0  0.8471037117974068  0.9960353001438922  0.8590210356974524  1.0000
  C   C1849     1.0  0.8360647870400417  0.5077543236518952  0.8721688251661294  1.0000
  C   C1850     1.0  0.815342087048699  0.512247669269934  0.8655345071992121  1.0000
  H   H1469     1.0  0.8028082480150779  0.9808814847903592  0.8202002560422947  1.0000
  H   H1470     1.0  0.8398941213974486  0.9744235128466479  0.8306986014900584  1.0000
  H   H1471     1.0  0.8455127844675905  0.5153847074689283  0.8870803611452637  1.0000
  H   H1472     1.0  0.8096049883986233  0.5237768506536001  0.875368961939657  1.0000
  C   C1851     1.0  0.8998269094724357  0.545968544511848  0.8764764662532487  1.0000
  C   C1852     1.0  0.8948996509161309  0.5195399019049114  0.8797148455790418  1.0000
  C   C1853     1.0  0.9106988609312778  0.5156662815819143  0.8945590746661899  1.0000
  C   C1854     1.0  0.9305751708744041  0.5374735672584205  0.905263929896184  1.0000
  C   C1855     1.0  0.9331750203935184  0.5632367502687342  0.9035537229588972  1.0000
  C   C1856     1.0  0.9174353371924607  0.5673556477831665  0.8888685828891709  1.0000
  C   C1857     1.0  0.8742500031782182  0.995106027015993  0.8651321955493853  1.0000
  C   C1858     1.0  0.8947813213427299  0.9997636143788388  0.8465524339570004  1.0000
  C   C1859     1.0  0.9125671464470926  0.9897976129986121  0.8475161462740762  1.0000
  C   C1860     1.0  0.9296273009270755  0.9925728244429575  0.8317953978890161  1.0000
  C   C1861     1.0  0.9300039343732559  0.5063426412203244  0.8141977050387942  1.0000
  C   C1862     1.0  0.9123492014333134  0.5169341020619924  0.8125639832060372  1.0000
  C   C1863     1.0  0.8958156666789924  0.5141736621582766  0.8287665877496351  1.0000
  C   C1864     1.0  0.8496291996407599  0.9617810667867249  0.8943311490546909  1.0000
  C   C1865     1.0  0.8357650922958669  0.9367198801825978  0.9033976933456563  1.0000
  C   C1866     1.0  0.8330650758022295  0.9139993672632201  0.8937360949414489  1.0000
  C   C1867     1.0  0.8456473330750885  0.9171835295429788  0.8751823382846042  1.0000
  C   C1868     1.0  0.8571455409482137  0.9418939970333613  0.8652300964831834  1.0000
  C   C1869     1.0  0.8604836975734157  0.9651970366843582  0.8752725907079494  1.0000
  C   C1870     1.0  0.8180713895158912  0.885057499742792  0.9048891528839883  1.0000
  C   C1871     1.0  0.8861762783932715  0.8928139112883621  0.9427018588614424  1.0000
  C   C1872     1.0  0.8675405196122777  0.8982854090765393  0.9516292002621638  1.0000
  C   C1873     1.0  0.8463820576688761  0.8973582142252283  0.9400202910966268  1.0000
  C   C1874     1.0  0.8426421316931707  0.8882611538555453  0.9195865305704389  1.0000
  C   C1875     1.0  0.8619406352111973  0.8829010297844136  0.9109146494188474  1.0000
  C   C1876     1.0  0.8840007303453189  0.8863190200828621  0.9225556823282867  1.0000
  C   C1877     1.0  0.8047973888809261  0.8590046473665917  0.8898062902707066  1.0000
  C   C1878     1.0  0.792091878619593  0.8577233462615746  0.8710857960859868  1.0000
  C   C1879     1.0  0.7788054973498097  0.8334283283264781  0.8605354407671428  1.0000
  C   C1880     1.0  0.7750202454217526  0.8093991313605443  0.8691767278769224  1.0000
  C   C1881     1.0  0.7865652701276714  0.8097875756977729  0.8877182469170424  1.0000
  C   C1882     1.0  0.8017821107327117  0.834472304964693  0.897375256214978  1.0000
  C   C1883     1.0  0.7815334987739309  0.8618088892603817  0.9331962900704758  1.0000
  C   C1884     1.0  0.755701680005752  0.8532271128998096  0.9409824737116119  1.0000
  C   C1885     1.0  0.7381991998006017  0.8603133582544962  0.9312780436488678  1.0000
  C   C1886     1.0  0.7467412059625581  0.8759174153235346  0.9136176330129314  1.0000
  C   C1887     1.0  0.7732057464250919  0.8863619016227573  0.9069328348770248  1.0000
  C   C1888     1.0  0.7909175548691025  0.8789049406918907  0.9162257750773984  1.0000
  H   H1473     1.0  0.8894492774948836  0.5505474223710758  0.8640812902131455  1.0000
  H   H1474     1.0  0.9095023756019213  0.9958409496565679  0.8965920487445929  1.0000
  H   H1475     1.0  0.9423428617899255  0.5330815903643553  0.9169263786348916  1.0000
  H   H1476     1.0  0.9205771626558638  0.5880117282504524  0.8865419060093737  1.0000
  H   H1477     1.0  0.9136404760813669  0.9794789104523957  0.8612957027061693  1.0000
  H   H1478     1.0  0.9433273170363575  0.9840975791575008  0.8332730901085323  1.0000
  H   H1479     1.0  0.9118883884959952  0.5282369454781559  0.7990352979168017  1.0000
  H   H1480     1.0  0.8826828367398916  0.5227242618826762  0.8266005295893505  1.0000
  H   H1481     1.0  0.8523763380208133  0.9791100304557226  0.9033808666226597  1.0000
  H   H1482     1.0  0.828584924436557  0.9365390950770336  0.918937936884026  1.0000
  H   H1483     1.0  0.8457834820339466  0.8997050237251093  0.8683399808333662  1.0000
  H   H1484     1.0  0.8646700175039203  0.9423915349859467  0.8496975014552667  1.0000
  H   H1485     1.0  0.8689134093295349  0.9036112237194909  0.96767424549043  1.0000
  H   H1486     1.0  0.8327118903239253  0.90330082271635  0.9473307373875873  1.0000
  H   H1487     1.0  0.860225861316875  0.8757556568964493  0.895441712772464  1.0000
  H   H1488     1.0  0.8991498094876179  0.8819914421368652  0.9156276615599752  1.0000
  H   H1489     1.0  0.7918696413489185  0.8756279869736212  0.8645876216051332  1.0000
  H   H1490     1.0  0.771463897661969  0.8333462735552777  0.8453500881137915  1.0000
  H   H1491     1.0  0.7845814996657308  0.7917816202407502  0.8954814850268198  1.0000
  H   H1492     1.0  0.8102488493279512  0.8342992899217418  0.9125361336348797  1.0000
  H   H1493     1.0  0.7943390164775229  0.8544216892686  0.9406413501454088  1.0000
  H   H1494     1.0  0.7495629550154718  0.8406310976679744  0.9543796046210559  1.0000
  H   H1495     1.0  0.7333910623216959  0.881580116710354  0.9054092515947907  1.0000
  H   H1496     1.0  0.7792178037671118  0.8986554821997501  0.8934622782672326  1.0000
  C   C1889     1.0  0.8121472104218437  0.727321618961026  0.3486634678075661  1.0000
  C   C1890     1.0  0.8181885384071175  0.7501060153624615  0.3601347037849491  1.0000
  C   C1891     1.0  0.8381578787786623  0.7754953167317226  0.3536778312605413  1.0000
  C   C1892     1.0  0.852963424424791  0.7787319654843198  0.3360097721141519  1.0000
  C   C1893     1.0  0.8449923551979173  0.7556731755485085  0.32383946228136634  1.0000
  C   C1894     1.0  0.8250565569210234  0.7301809542489761  0.33022902791378783  1.0000
  H   H1497     1.0  0.809104467516343  0.7479252894192056  0.37504929916826485  1.0000
  H   H1498     1.0  0.842109735719673  0.792917399292457  0.36319563766823265  1.0000
  H   H1499     1.0  0.8545832193190992  0.7562666595111722  0.3094143715670415  1.0000
  H   H1500     1.0  0.8205578222314768  0.7122838557574291  0.3207938254189887  1.0000
  C   C1895     1.0  0.9076968692665572  0.797329845867351  0.31082016778829963  1.0000
  C   C1896     1.0  0.8949943383984765  0.8131631184985587  0.3109899647203559  1.0000
  C   C1897     1.0  0.902612768755899  0.8330563384325165  0.2956868250060286  1.0000
  C   C1898     1.0  0.9194352327875487  0.8343169350616869  0.28014964087184013  1.0000
  C   C1899     1.0  0.9307313979157817  0.8176446854603472  0.2801358735530247  1.0000
  C   C1900     1.0  0.9260830164684707  0.8001977250941003  0.2960631317203155  1.0000
  C   C1901     1.0  0.8756837354613263  0.8097465772950225  0.32957431541901255  1.0000
  C   C1902     1.0  0.8982632425464909  0.8251771042387999  0.34713376571696963  1.0000
  C   C1903     1.0  0.9144182999282057  0.8539633288574028  0.3484890817692381  1.0000
  C   C1904     1.0  0.9331232525439781  0.8665778703821303  0.3641272262414059  1.0000
  C   C1905     1.0  0.9381225066533715  0.8507694977760141  0.3777966441229761  1.0000
  C   C1906     1.0  0.9229928844852763  0.8225426795977678  0.3764107340288957  1.0000
  C   C1907     1.0  0.9035463524380034  0.8098736721505199  0.36165828706718334  1.0000
  C   C1908     1.0  0.8413556702239022  0.8183380907965149  0.30767662999212386  1.0000
  C   C1909     1.0  0.8219936708704638  0.8261019018728106  0.3055365767673794  1.0000
  C   C1910     1.0  0.8197214755960598  0.8425758782745234  0.3202324247517398  1.0000
  C   C1911     1.0  0.8350562633550033  0.8483605217817625  0.33812382040335626  1.0000
  C   C1912     1.0  0.8519676441843529  0.8375453716593498  0.34102566526921785  1.0000
  C   C1913     1.0  0.856457181007619  0.8230984833984953  0.3255879117709181  1.0000
  C   C1914     1.0  0.8014254135593566  0.8563919008886024  0.3156524966924939  1.0000
  C   C1915     1.0  0.8541318471082984  0.919944792061473  0.2717163932463817  1.0000
  C   C1916     1.0  0.8336931277181263  0.8945070132555529  0.26525034250943036  1.0000
  C   C1917     1.0  0.8179579075979847  0.8739163064706144  0.2786474734188744  1.0000
  C   C1918     1.0  0.8213095859389399  0.8787460506561868  0.29949272380743264  1.0000
  C   C1919     1.0  0.8427798512992181  0.903788727431484  0.30579203701650903  1.0000
  C   C1920     1.0  0.8588744127608369  0.9243831662851808  0.29207825777431157  1.0000
  C   C1921     1.0  0.7929028959346844  0.8686954450881338  0.334353104750036  1.0000
  C   C1922     1.0  0.7842542093696432  0.8550630149838254  0.353038415786672  1.0000
  C   C1923     1.0  0.7743484662562625  0.8653319407865295  0.36793771414908194  1.0000
  C   C1924     1.0  0.7736655929009303  0.8892671136835614  0.36490584460551956  1.0000
  C   C1925     1.0  0.7819199098096669  0.9021035619385656  0.3462128850584305  1.0000
  C   C1926     1.0  0.790412346449258  0.8916249020294007  0.33136100746082925  1.0000
  C   C1927     1.0  0.7562371298984591  0.8418596953550522  0.2942718505722269  1.0000
  C   C1928     1.0  0.7302227163925911  0.8231455237047725  0.2878088592394567  1.0000
  C   C1929     1.0  0.7165931696044026  0.7972072876818119  0.296159502952023  1.0000
  C   C1930     1.0  0.7305723389512868  0.7891891398209289  0.30912678757400935  1.0000
  C   C1931     1.0  0.7575240416143287  0.8077025767320967  0.3145709973144422  1.0000
  C   C1932     1.0  0.7707105463838315  0.8348104736751305  0.3073921054032729  1.0000
  H   H1501     1.0  0.9045216025525281  0.7831881739402167  0.3233729031437344  1.0000
  H   H1502     1.0  0.8956754077394051  0.8477809972927555  0.2958474437255412  1.0000
  H   H1503     1.0  0.9267023653210145  0.8505751832377993  0.26943101832303057  1.0000
  H   H1504     1.0  0.9362344838360114  0.7883073267503656  0.2976280169589956  1.0000
  H   H1505     1.0  0.9126970726557451  0.8663800026720571  0.3364656233371497  1.0000
  H   H1506     1.0  0.9457025269966522  0.8888717315287539  0.36450659235987404  1.0000
  H   H1507     1.0  0.9250204678162722  0.8095905637680005  0.3878697323895539  1.0000
  H   H1508     1.0  0.8930253831016356  0.7874734170139842  0.36174242068216617  1.0000
  H   H1509     1.0  0.8435868241313256  0.8064660676727015  0.2954711370112545  1.0000
  H   H1510     1.0  0.8108077343991066  0.821531287307979  0.2915000303840661  1.0000
  H   H1511     1.0  0.8364785983827581  0.8628031510492563  0.3500264323702876  1.0000
  H   H1512     1.0  0.8621316146017837  0.8416884254372506  0.3552687214347617  1.0000
  H   H1513     1.0  0.8302342504442454  0.8913321891095796  0.248874881629595  1.0000
  H   H1514     1.0  0.8025350266688756  0.8547437500247304  0.2724139373996937  1.0000
  H   H1515     1.0  0.8464739403101743  0.907183320773581  0.3219135673493053  1.0000
  H   H1516     1.0  0.8765032031619912  0.9438710546850182  0.29714004199209537  1.0000
  H   H1517     1.0  0.782179020674101  0.8350381140211877  0.35464460298179834  1.0000
  H   H1518     1.0  0.7660281618311342  0.8537568572057829  0.38197426053239514  1.0000
  H   H1519     1.0  0.7798223279906326  0.9200815737988361  0.34257066438072026  1.0000
  H   H1520     1.0  0.7944065497075085  0.902468838341957  0.316501481352775  1.0000
  H   H1521     1.0  0.7651500265733295  0.8623281839124913  0.2886899676436403  1.0000
  H   H1522     1.0  0.7207875761927346  0.8302797808414489  0.2769831575443055  1.0000
  H   H1523     1.0  0.72005153244891  0.7692735740009765  0.31612517463848827  1.0000
  H   H1524     1.0  0.767486547028254  0.8008215335112648  0.3255879117709181  1.0000
  C   C1933     1.0  0.5282361206011332  0.7257481398082155  0.19668450570262416  1.0000
  C   C1934     1.0  0.5470306512266203  0.746459225130732  0.1841883693245415  1.0000
  C   C1935     1.0  0.5520200611456747  0.7729164982595379  0.18668637283848555  1.0000
  C   C1936     1.0  0.5398981279473415  0.7794714379770225  0.20204458182807425  1.0000
  C   C1937     1.0  0.5244582861060848  0.7590687880154178  0.2161805588472764  1.0000
  C   C1938     1.0  0.5185806432581066  0.7323316181595957  0.21353723363472563  1.0000
  H   H1525     1.0  0.5551193673450311  0.7409725173271642  0.171172134235656  1.0000
  H   H1526     1.0  0.5654911919379525  0.7883686852665484  0.17612989871127918  1.0000
  H   H1527     1.0  0.5162154309291305  0.7640890092347602  0.22953026899191187  1.0000
  H   H1528     1.0  0.5040075287427283  0.7157179402092565  0.2228745351957266  1.0000
  C   C1939     1.0  0.9890868882957908  0.7882339814207798  0.21114019045876098  1.0000
  C   C1940     1.0  0.5163765032310179  0.8079511967895361  0.21534534150581072  1.0000
  C   C1941     1.0  0.5203728784049532  0.8288807895400157  0.2288633188804119  1.0000
  C   C1942     1.0  0.9988220162808015  0.8297536089231633  0.23801858589263175  1.0000
  C   C1943     1.0  0.9719775915124249  0.8097729455132944  0.23366352404070356  1.0000
  C   C1944     1.0  0.9675577175227893  0.7897372656006455  0.21949389357550836  1.0000
  C   C1945     1.0  0.5425818392174978  0.8091346954281585  0.2041020311399265  1.0000
  C   C1946     1.0  0.5419149937357455  0.82436159944237  0.18410117630537748  1.0000
  C   C1947     1.0  0.5518945880831571  0.8525050095398067  0.1828361126764542  1.0000
  C   C1948     1.0  0.547799284471766  0.8647103939727727  0.16615471137849952  1.0000
  C   C1949     1.0  0.534067128316728  0.8485963357162175  0.14973687775075464  1.0000
  C   C1950     1.0  0.5253786977616912  0.8209309687005844  0.15001757808437907  1.0000
  C   C1951     1.0  0.5280715617204312  0.8089770458573879  0.1671428989290249  1.0000
  C   C1952     1.0  0.5701264362714137  0.8165378852471277  0.23724455663478994  1.0000
  C   C1953     1.0  0.5935960408018967  0.8280083632573211  0.249056916178376  1.0000
  C   C1954     1.0  0.6185345823286276  0.8468757580524883  0.24100303467138548  1.0000
  C   C1955     1.0  0.6185605678011127  0.8545641105542954  0.22061669491000616  1.0000
  C   C1956     1.0  0.5952848124535097  0.8424454769318718  0.20857946915910244  1.0000
  C   C1957     1.0  0.5703387564774229  0.823728755764265  0.2170723751660941  1.0000
  C   C1958     1.0  0.6462298432096264  0.8605356251300198  0.25533481355818416  1.0000
  C   C1959     1.0  0.6252790084027617  0.9136948767114602  0.29101817422552817  1.0000
  C   C1960     1.0  0.6220303048662219  0.8900877870987176  0.3000480056663192  1.0000
  C   C1961     1.0  0.6288051605572048  0.8734498175899681  0.2892223039711679  1.0000
  C   C1962     1.0  0.6398058433921551  0.8802565684281912  0.2694631420669331  1.0000
  C   C1963     1.0  0.6426790906822502  0.9042264819216307  0.26112320626900104  1.0000
  C   C1964     1.0  0.6352228012631419  0.9206089466865737  0.27156342303732206  1.0000
  C   C1965     1.0  0.6744592581909529  0.8741820524557001  0.24314614730031117  1.0000
  C   C1966     1.0  0.6774403866902146  0.860408371632041  0.22653358259643344  1.0000
  C   C1967     1.0  0.7013608580733469  0.8706031642992825  0.21575071255981876  1.0000
  C   C1968     1.0  0.7232033245136842  0.8952254514005246  0.2213800162532138  1.0000
  C   C1969     1.0  0.7207160512294499  0.9094697987072787  0.23771417517660307  1.0000
  C   C1970     1.0  0.6973690288202804  0.8988784166955613  0.248802985631337  1.0000
  C   C1971     1.0  0.6386320904622255  0.8116379137408987  0.2622475373055895  1.0000
  C   C1972     1.0  0.64204329633614  0.79302296052598  0.273265981464156  1.0000
  C   C1973     1.0  0.6592067492429792  0.8016609027681624  0.2899060808056645  1.0000
  C   C1974     1.0  0.671741813375812  0.8284396797975957  0.2963553048196193  1.0000
  C   C1975     1.0  0.668373022746451  0.8471677833822092  0.2853598061924119  1.0000
  C   C1976     1.0  0.6512696631283943  0.8391274933393614  0.26799768746414165  1.0000
  H   H1529     1.0  0.9836911787578594  0.7719885485192733  0.20005902851448001  1.0000
  H   H1530     1.0  0.541022181113379  0.844915710924197  0.2325177771748468  1.0000
  H   H1531     1.0  0.5031040364801175  0.8460502400948435  0.24891618358604115  1.0000
  H   H1532     1.0  0.9471388310944285  0.7740487010576178  0.2148114754761925  1.0000
  H   H1533     1.0  0.5619036018072664  0.8647549284917038  0.19629137226534088  1.0000
  H   H1534     1.0  0.5556156474993991  0.887154560162503  0.16666716157884937  1.0000
  H   H1535     1.0  0.5148792221560516  0.8075651846977236  0.13736311753991967  1.0000
  H   H1536     1.0  0.5189165803919484  0.7871643543857781  0.16666716157884937  1.0000
  H   H1537     1.0  0.5512905969824919  0.8032422122774637  0.24522654214352238  1.0000
  H   H1538     1.0  0.592738690490613  0.8228236004492818  0.2647302437986276  1.0000
  H   H1539     1.0  0.6371956682475485  0.8701417884408378  0.2134974613803701  1.0000
  H   H1540     1.0  0.5964963680383621  0.8469772665777067  0.1920969291329253  1.0000
  H   H1541     1.0  0.6132418145901904  0.8839314939849697  0.31511404155660394  1.0000
  H   H1542     1.0  0.6252437543366083  0.8547218081455562  0.2968815223387845  1.0000
  H   H1543     1.0  0.6482908285867698  0.9092139121006472  0.24554777958254764  1.0000
  H   H1544     1.0  0.6368632764748521  0.9386014869833283  0.2646155161418328  1.0000
  H   H1545     1.0  0.660888055689488  0.8404088304891364  0.22187411002847648  1.0000
  H   H1546     1.0  0.7037234856265856  0.8579813096054982  0.20428559539079816  1.0000
  H   H1547     1.0  0.7379070230113968  0.9285094664057332  0.2429059840720876  1.0000
  H   H1548     1.0  0.6974650721986061  0.9093724140085024  0.2627278637620368  1.0000
  H   H1549     1.0  0.6247035392997642  0.8035262813804944  0.2488351093752395  1.0000
  H   H1550     1.0  0.6319191862665601  0.7715306619752026  0.26899046412093874  1.0000
  H   H1551     1.0  0.6862756216096106  0.8349150485495984  0.3088330847726148  1.0000
  H   H1552     1.0  0.6788612134306078  0.8682085585637342  0.2904384171331921  1.0000
  C   C1977     1.0  0.7815946580780181  0.9298600398664113  0.18084138115031637  1.0000
  C   C1978     1.0  0.7936120246709564  0.9148932474192488  0.17432179084019414  1.0000
  C   C1979     1.0  0.8196417548840919  0.9281617492033403  0.16598032534017154  1.0000
  C   C1980     1.0  0.834682403032636  0.956485164094391  0.16559942951961298  1.0000
  C   C1981     1.0  0.8219968202060546  0.9711042119799319  0.1719951139603969  1.0000
  C   C1982     1.0  0.7958441701356126  0.9579852670125071  0.17984860449351925  1.0000
  H   H1553     1.0  0.7832789547115417  0.892983179603132  0.17667294295344096  1.0000
  H   H1554     1.0  0.8284775911442037  0.915461401275685  0.16106539252308502  1.0000
  H   H1555     1.0  0.8336876158540344  0.9936431679274405  0.17265594526353456  1.0000
  H   H1556     1.0  0.786054328311108  0.9698169511199787  0.184179191111998  1.0000
  C   C1983     1.0  0.8546519765019571  0.9498926318531562  0.12415949394493614  1.0000
  C   C1984     1.0  0.8738061606756663  0.9619684356980055  0.1399120601334806  1.0000
  C   C1985     1.0  0.89957044935825  0.9643676501389133  0.13733818339584294  1.0000
  C   C1986     1.0  0.9054234740673799  0.9544125329306155  0.12000268148394923  1.0000
  C   C1987     1.0  0.8854953789768869  0.9409473676349865  0.1050964994621318  1.0000
  C   C1988     1.0  0.8603842223372479  0.9392346135387997  0.1072527675290366  1.0000
  C   C1989     1.0  0.8664260331888631  0.9728261143609178  0.16036019985932004  1.0000
  C   C1990     1.0  0.8775385549607262  0.9669155892279715  0.1813874847966593  1.0000
  C   C1991     1.0  0.8795615956801598  0.9820290021119631  0.19863946497440654  1.0000
  C   C1992     1.0  0.8847632711300669  0.9752355779737395  0.21750986996400468  1.0000
  C   C1993     1.0  0.886749750128805  0.9519293199002155  0.22016084368700842  1.0000
  C   C1994     1.0  0.885568953552562  0.9370488646175933  0.20335859592389663  1.0000
  C   C1995     1.0  0.8813018783981199  0.9441380591769901  0.18415165647436715  1.0000
  C   C1996     1.0  0.8675965528054707  0.5123170413624542  0.13800436865629773  1.0000
  C   C1997     1.0  0.8816924429793771  0.5381449868072725  0.12992172875000405  1.0000
  C   C1998     1.0  0.9063773663509932  0.558845851987403  0.13881862907912224  1.0000
  C   C1999     1.0  0.9172614066640049  0.550656295242113  0.15462228731749264  1.0000
  C   C2000     1.0  0.9046794274764695  0.5239347929870568  0.16088641737848525  1.0000
  C   C2001     1.0  0.8790826313638597  0.5043584090845917  0.1539017976328217  1.0000
  C   C2002     1.0  0.9243475685865816  0.588043036089274  0.12789487347996367  1.0000
  C   C2003     1.0  0.9715196962058158  0.5645188759912971  0.08830358288177269  1.0000
  C   C2004     1.0  0.9450660337118457  0.5581535157328681  0.08297195921520767  1.0000
  C   C2005     1.0  0.9310237045332668  0.5665060398453617  0.09505446414799305  1.0000
  C   C2006     1.0  0.9424493792093095  0.5810516997300651  0.11292077268532376  1.0000
  C   C2007     1.0  0.9685905576334232  0.5862272119873564  0.11876239902889361  1.0000
  C   C2008     1.0  0.9827958068450067  0.5773542289782833  0.10660157334906967  1.0000
  C   C2009     1.0  0.9433637671042491  0.6140535227706257  0.14212737470108244  1.0000
  C   C2010     1.0  0.9385378358807159  0.6155820863321266  0.16275724303528472  1.0000
  C   C2011     1.0  0.953940913182634  0.6389869212715275  0.17398219697608172  1.0000
  C   C2012     1.0  0.9735078770718405  0.6621448602367527  0.16448121729138696  1.0000
  C   C2013     1.0  0.9785704051198657  0.6614452389167469  0.14407284981990304  1.0000
  C   C2014     1.0  0.9637701857954062  0.6373892440814777  0.13320232785349723  1.0000
  C   C2015     1.0  0.9091114038210141  0.6080061369732278  0.09752722757744227  1.0000
  C   C2016     1.0  0.8920972608347798  0.6164676066777488  0.08872899303316754  1.0000
  C   C2017     1.0  0.87111757340655  0.6159907166652857  0.10006010829905193  1.0000
  C   C2018     1.0  0.8674226000229063  0.6071240481641695  0.11994378795346126  1.0000
  C   C2019     1.0  0.8844930467443971  0.598604538474833  0.12853903103031386  1.0000
  C   C2020     1.0  0.9051656103465291  0.5979440095127305  0.1173608859734891  1.0000
  H   H1557     1.0  0.8346951437777342  0.947565426239206  0.12504412066392806  1.0000
  H   H1558     1.0  0.9152638807823831  0.9747233833018805  0.14917394738141512  1.0000
  H   H1559     1.0  0.9257382534612247  0.9566881468104875  0.11897502761948651  1.0000
  H   H1560     1.0  0.8437967247403374  0.9271422599734491  0.09654255834172532  1.0000
  H   H1561     1.0  0.8757044619172638  0.9992111346744313  0.19775223776186052  1.0000
  H   H1562     1.0  0.8856145794990983  0.9873369040328992  0.23054599118006794  1.0000
  H   H1563     1.0  0.8874816640752915  0.9186681060583842  0.20561031740125466  1.0000
  H   H1564     1.0  0.8764455834578873  0.9295366581791589  0.17191709915377654  1.0000
  H   H1565     1.0  0.8480012093881922  0.996831007175856  0.1311875572299726  1.0000
  H   H1566     1.0  0.8727264716171974  0.5423691803543308  0.11676399621773836  1.0000
  H   H1567     1.0  0.9375284130755229  0.5647360060992211  0.16131779336803345  1.0000
  H   H1568     1.0  0.9161660833121752  0.5181670497051274  0.1711415401938441  1.0000
  H   H1569     1.0  0.935731414815627  0.5478311916427463  0.0691616557710936  1.0000
  H   H1570     1.0  0.9099037400486186  0.5601373520320538  0.09054597317637804  1.0000
  H   H1571     1.0  0.9781792490753447  0.5968957004570806  0.13275075979635315  1.0000
  H   H1572     1.0  0.5027560278028238  0.5818037143246035  0.11211446671337036  1.0000
  H   H1573     1.0  0.9212195650381387  0.5979321564102988  0.16949405104227164  1.0000
  H   H1574     1.0  0.9502491753915558  0.6391635165949345  0.19013279164859942  1.0000
  H   H1575     1.0  0.9937014469638515  0.6796804660247876  0.1360899464899162  1.0000
  H   H1576     1.0  0.9677370139177053  0.6380929398364888  0.11721464645362809  1.0000
  H   H1577     1.0  0.9259224695025536  0.6101306612495231  0.08803282561173707  1.0000
  H   H1578     1.0  0.8955075407912276  0.6239001727796532  0.07318645494166195  1.0000
  H   H1579     1.0  0.8523975572730067  0.6076261443698062  0.1297055818446028  1.0000
  H   H1580     1.0  0.8813768635355638  0.5919569128667783  0.1441433690862796  1.0000
  C   C2021     1.0  0.7817227435795396  0.7477220428572795  0.028796335915060697  1.0000
  C   C2022     1.0  0.7996751390767898  0.752511861886431  0.013087626285453622  1.0000
  C   C2023     1.0  0.8271377024953311  0.7710468776152549  0.01595662844743005  1.0000
  C   C2024     1.0  0.8368367065318079  0.7864776841303402  0.033748134552530576  1.0000
  C   C2025     1.0  0.8185710683605638  0.7788912983662818  0.04999617124821925  1.0000
  C   C2026     1.0  0.7913459409778625  0.7602742191324398  0.04729945943270671  1.0000
  H   H1581     1.0  0.7921969572820736  0.7432400366221706  0.9982514605793632  1.0000
  H   H1582     1.0  0.8405990475886024  0.7746529254406476  0.0031541557797247766  1.0000
  H   H1583     1.0  0.8254982229632696  0.7900436502169058  0.06407539631986023  1.0000
  H   H1584     1.0  0.7769335582500688  0.7575137447053404  0.05901758932751202  1.0000
  C   C2027     1.0  0.8513566505565611  0.8436978101555981  0.05131370365885001  1.0000
  C   C2028     1.0  0.8710991994355438  0.8356621414484237  0.04973795753532657  1.0000
  C   C2029     1.0  0.8953286544940077  0.8504764199921011  0.06111985891061877  1.0000
  C   C2030     1.0  0.8987359588774341  0.8709244214069524  0.074384211678599  1.0000
  C   C2031     1.0  0.878048167453427  0.8768181088606944  0.07693957902094042  1.0000
  C   C2032     1.0  0.8553194629335785  0.8645219033619254  0.06433039765836267  1.0000
  C   C2033     1.0  0.8676743468138443  0.8113110110909268  0.03529221584277869  1.0000
  C   C2034     1.0  0.8815351451906338  0.8286586906792524  0.015489457428961882  1.0000
  C   C2035     1.0  0.9095981203274384  0.8417739994982906  0.01144665366478715  1.0000
  C   C2036     1.0  0.9201039940616571  0.8577296088249744  0.994081492680397  1.0000
  C   C2037     1.0  0.9030181408959372  0.8592837144585289  0.9797451246873269  1.0000
  C   C2038     1.0  0.8749568763827087  0.8468875645599938  0.9831961326037126  1.0000
  C   C2039     1.0  0.8649058654778078  0.8329542166014529  0.0013598152274552078  1.0000
  C   C2040     1.0  0.8786994002923962  0.7887202333393221  0.06502778884146561  1.0000
  C   C2041     1.0  0.8922529222354548  0.7774106855800731  0.07411834945525334  1.0000
  C   C2042     1.0  0.9077469625142904  0.7691144734377771  0.06285316434947365  1.0000
  C   C2043     1.0  0.9049365386967815  0.7687926739510796  0.041584492422238245  1.0000
  C   C2044     1.0  0.8924788562790336  0.7819941952553686  0.032277173022213  1.0000
  C   C2045     1.0  0.8804683846043634  0.7938411765815803  0.044183456274161675  1.0000
  C   C2046     1.0  0.9279663660458733  0.7612335743522815  0.07535954973156332  1.0000
  C   C2047     1.0  0.976425938351719  0.8270313611199054  0.119281426948233  1.0000
  C   C2048     1.0  0.9661767933543359  0.8000656406002752  0.12496794149981637  1.0000
  C   C2049     1.0  0.9515646136567456  0.7788295035114225  0.11137975079925685  1.0000
  C   C2050     1.0  0.9452198663315374  0.7840118766777403  0.09201571094502314  1.0000
  C   C2051     1.0  0.9559881959230235  0.8113602879830676  0.08643734633124493  1.0000
  C   C2052     1.0  0.9709498093761757  0.8323452904165609  0.09985298663598517  1.0000
  C   C2053     1.0  0.9525743309192266  0.7619304927135305  0.06313600626602493  1.0000
  C   C2054     1.0  0.9621397739793298  0.7440730938105501  0.06787379958102036  1.0000
  C   C2055     1.0  0.983218030138316  0.744315867831624  0.057692255436219225  1.0000
  C   C2056     1.0  0.9975866468701604  0.7643009616877432  0.043531038332522275  1.0000
  C   C2057     1.0  0.9883548273006988  0.7819372208133095  0.03790953611978925  1.0000
  C   C2058     1.0  0.9664706795605514  0.7812151706111431  0.04805191989107112  1.0000
  C   C2059     1.0  0.896456735725634  0.7230970607243699  0.102876136877631  1.0000
  C   C2060     1.0  0.8807981021395593  0.6959507625704182  0.10856877023757676  1.0000
  C   C2061     1.0  0.8703062113031375  0.6752794464926768  0.09381051040791999  1.0000
  C   C2062     1.0  0.877525827761923  0.6829947877231939  0.07380292488417234  1.0000
  C   C2063     1.0  0.8950224493780227  0.710079549341479  0.06859015907004669  1.0000
  C   C2064     1.0  0.906001765349936  0.730804584721022  0.08303804234552142  1.0000
  H   H1585     1.0  0.8322927425649479  0.8339004156769517  0.041975484276594706  1.0000
  H   H1586     1.0  0.9121990161525453  0.8464655286897594  0.059266165917233944  1.0000
  H   H1587     1.0  0.9172534276513482  0.8815975454035041  0.08334275900196825  1.0000
  H   H1588     1.0  0.8380005578365981  0.8683161104868936  0.06558429446202461  1.0000
  H   H1589     1.0  0.923636628201075  0.8398350286353509  0.022162782799189054  1.0000
  H   H1590     1.0  0.9419039494300115  0.8680162483896722  0.9912469547065218  1.0000
  H   H1591     1.0  0.8616641118900177  0.8479967722810147  0.9717478421576885  1.0000
  H   H1592     1.0  0.8435120840960194  0.8253027965352946  0.004599724255338611  1.0000
  H   H1593     1.0  0.8661412528535012  0.7939043809519156  0.07445197748121243  1.0000
  H   H1594     1.0  0.8913946175780089  0.776768465122801  0.09077038047306854  1.0000
  H   H1595     1.0  0.9151867890249761  0.760875027539112  0.0321251206344077  1.0000
  H   H1596     1.0  0.8927910450410302  0.7838416329396435  0.015580321733143313  1.0000
  H   H1597     1.0  0.9696504791386039  0.7950204350876392  0.1403893271857467  1.0000
  H   H1598     1.0  0.9464701357186276  0.7587779153477259  0.11644260580850405  1.0000
  H   H1599     1.0  0.9525302238403213  0.8161215097531002  0.07089266665681253  1.0000
  H   H1600     1.0  0.9796044135203551  0.8533722655362699  0.09518418288527564  1.0000
  H   H1601     1.0  0.9532486031775731  0.7295074980704543  0.08023746375805739  1.0000
  H   H1602     1.0  0.9911280079758918  0.7306175724515653  0.0626796961324  1.0000
  H   H1603     1.0  0.9993460043225874  0.7970153491075637  0.025873840070976113  1.0000
  H   H1604     1.0  0.9610465515265563  0.7966484664980377  0.04400876429541555  1.0000
  H   H1605     1.0  0.900853552453646  0.7385038102332613  0.11435700997818479  1.0000
  H   H1606     1.0  0.8750067169570317  0.6914896624895238  0.1244863912816966  1.0000
  H   H1607     1.0  0.8684921628290093  0.6683584010703089  0.06138067311706547  1.0000
  H   H1608     1.0  0.8989818769970676  0.7143384369299293  0.05264653309038672  1.0000
  C   C2065     1.0  0.7552207651034955  0.7423257418086882  0.8402867741939171  1.0000
  C   C2066     1.0  0.755332395624521  0.7220351088951666  0.8517977824256557  1.0000
  C   C2067     1.0  0.738672628391176  0.6947059290948056  0.8470480574343536  1.0000
  C   C2068     1.0  0.7192198401442393  0.6865454233077753  0.8316516058925  1.0000
  C   C2069     1.0  0.7208868829239161  0.7075301819657622  0.8189153062861937  1.0000
  C   C2070     1.0  0.7390109513644724  0.7347278246481179  0.8230623286538007  1.0000
  H   H1609     1.0  0.7691487060784842  0.7278777386087899  0.8648966214274334  1.0000
  H   H1610     1.0  0.7382611723350463  0.6791457568885636  0.857430145523232  1.0000
  H   H1611     1.0  0.7090891915059803  0.7021918706674425  0.8046187105474789  1.0000
  H   H1612     1.0  0.7410365467271738  0.7513598514128019  0.8135904133088273  1.0000
  C   C2071     1.0  0.6578359135228383  0.6614609907304055  0.8151063480806084  1.0000
  C   C2072     1.0  0.6711844396304999  0.6464075192159376  0.8153419222025603  1.0000
  C   C2073     1.0  0.6601956219990072  0.6229812035320654  0.8031884390927713  1.0000
  C   C2074     1.0  0.638117626841391  0.6157923761385529  0.7904001296153846  1.0000
  C   C2075     1.0  0.6263319611692543  0.6319811815150994  0.7889637393523146  1.0000
  C   C2076     1.0  0.6357215191784337  0.6544915285493389  0.8020702268645455  1.0000
  C   C2077     1.0  0.6967970040401029  0.6546269701073757  0.8303268838820435  1.0000
  C   C2078     1.0  0.6809731056505599  0.6424626259197812  0.8513679361381981  1.0000
  C   C2079     1.0  0.6683451799909099  0.6147454041350473  0.8565796311608603  1.0000
  C   C2080     1.0  0.6561920538990356  0.6056097770965134  0.8753246005790296  1.0000
  C   C2081     1.0  0.6568331982633936  0.6241481732330343  0.889535533000671  1.0000
  C   C2082     1.0  0.6681637871556059  0.6515067886239964  0.88389093228637  1.0000
  C   C2083     1.0  0.6790376390486614  0.6603774431032096  0.8649256857671547  1.0000
  C   C2084     1.0  0.7259885468315013  0.6508717472963554  0.8018499497634993  1.0000
  C   C2085     1.0  0.7409326135924122  0.6404589728990671  0.793201014143267  1.0000
  C   C2086     1.0  0.7450694367535978  0.6208994556537306  0.8032893994307506  1.0000
  C   C2087     1.0  0.7370213955679039  0.6155189612190437  0.8232917839673902  1.0000
  C   C2088     1.0  0.7222629054661491  0.6260450758070205  0.8321212244343131  1.0000
  C   C2089     1.0  0.7158509510047666  0.6431463212475074  0.8213398840997891  1.0000
  C   C2090     1.0  0.7552738928566977  0.6037333265854823  0.7904322533592871  1.0000
  C   C2091     1.0  0.6825748769525656  0.5593636921416637  0.7516604241710287  1.0000
  C   C2092     1.0  0.7060924881767224  0.5806762097674124  0.7437992851274534  1.0000
  C   C2093     1.0  0.7293585366807216  0.5941880730710961  0.7554693823766139  1.0000
  C   C2094     1.0  0.7295099969607232  0.5871168734093859  0.775955152773882  1.0000
  C   C2095     1.0  0.7055673323751727  0.5661053237804722  0.7840380986205938  1.0000
  C   C2096     1.0  0.6827090958388761  0.5521806945070853  0.771880026404533  1.0000
  C   C2097     1.0  0.763488542320388  0.5848711671487764  0.8031731420718653  1.0000
  C   C2098     1.0  0.7810954587717249  0.595115813694647  0.8197719394569277  1.0000
  C   C2099     1.0  0.7919753903839571  0.5808803086649216  0.8288736668959767  1.0000
  C   C2100     1.0  0.7852338990303616  0.5554008256267464  0.8212526910806252  1.0000
  C   C2101     1.0  0.7679654337087944  0.5448658458530514  0.8048940569237863  1.0000
  C   C2102     1.0  0.7572215902752756  0.559004129840816  0.7958458690579081  1.0000
  C   C2103     1.0  0.8022064091296768  0.6480548184842765  0.7866829535352351  1.0000
  C   C2104     1.0  0.8285862033562368  0.6625427316135314  0.7791522301432287  1.0000
  C   C2105     1.0  0.8369107181956263  0.6510439583107651  0.7643401247999829  1.0000
  C   C2106     1.0  0.8190659376877286  0.6254548582819582  0.7567267974950842  1.0000
  C   C2107     1.0  0.7925866242964731  0.6115202148188604  0.7639133379167065  1.0000
  C   C2108     1.0  0.7837456650910579  0.6222729966232172  0.7790680965282459  1.0000
  H   H1613     1.0  0.6637273610972937  0.6789149193920614  0.8252788669830751  1.0000
  H   H1614     1.0  0.6681740361500859  0.6090810504494396  0.8036641764429469  1.0000
  H   H1615     1.0  0.6302336745792291  0.5975683234636163  0.7813672387704124  1.0000
  H   H1616     1.0  0.624702779238265  0.6658915694511472  0.8027065829342334  1.0000
  H   H1617     1.0  0.6667426790104507  0.5991221506034384  0.8465264290214602  1.0000
  H   H1618     1.0  0.6463938858627659  0.5838220878479193  0.8781882028926263  1.0000
  H   H1619     1.0  0.6682540941583026  0.6669433771222844  0.8940190898282093  1.0000
  H   H1620     1.0  0.6868908569961377  0.6816134900993837  0.8611962720702805  1.0000
  H   H1621     1.0  0.7215633071767202  0.6644272793322831  0.7925753659882128  1.0000
  H   H1622     1.0  0.7478611946665733  0.645543498417629  0.7778091517076849  1.0000
  H   H1623     1.0  0.7397615006111636  0.6007578218170273  0.8321166353280414  1.0000
  H   H1624     1.0  0.7158996695128026  0.6203311120750266  0.8474595472967241  1.0000
  H   H1625     1.0  0.7058054272593443  0.5880085461433792  0.7283737692458787  1.0000
  H   H1626     1.0  0.7472176125541179  0.6114744245518257  0.7489528514706729  1.0000
  H   H1627     1.0  0.7052051376283578  0.5608284818725567  0.7997649658140163  1.0000
  H   H1628     1.0  0.6644755015643131  0.534723853542742  0.7785816512634361  1.0000
  H   H1629     1.0  0.7863957692506508  0.6148990157790525  0.825483847063215  1.0000
  H   H1630     1.0  0.8067159261112957  0.589307238655575  0.8421101790859082  1.0000
  H   H1631     1.0  0.7626990709031726  0.5251875416137947  0.7988425554533866  1.0000
  H   H1632     1.0  0.7450374894017096  0.5504637000548476  0.7824670945735512  1.0000
  H   H1633     1.0  0.7979392274041252  0.6572739212364417  0.7998383915143649  1.0000
  H   H1634     1.0  0.8418550510194915  0.6823167493087511  0.7856060432634553  1.0000
  H   H1635     1.0  0.8265192246129281  0.6157476026443915  0.7464074271919203  1.0000
  H   H1636     1.0  0.7784359125811424  0.5905278170097533  0.7590412367581566  1.0000
  C   C2109     1.0  0.5541879555873872  0.7314242861136158  0.6810692617962727  1.0000
  C   C2110     1.0  0.5360368193936829  0.7092691270470851  0.6694848278641855  1.0000
  C   C2111     1.0  0.5285787318275238  0.683031467547316  0.6754812600593237  1.0000
  C   C2112     1.0  0.5407164730641694  0.6780383528018744  0.6921427752301008  1.0000
  C   C2113     1.0  0.5575645665384164  0.7006405334814191  0.7044798225907614  1.0000
  C   C2114     1.0  0.563964005409318  0.7267319903964234  0.6991947018677505  1.0000
  H   H1637     1.0  0.5283936324194802  0.712441722542027  0.6549878411516026  1.0000
  H   H1638     1.0  0.5131559967314436  0.6656534143327111  0.6671703886011131  1.0000
  H   H1639     1.0  0.5654214947276799  0.6980946765891133  0.7190089330472467  1.0000
  H   H1640     1.0  0.5786579823217647  0.7444721767417847  0.7081342808851963  1.0000
  C   C2115     1.0  0.5831903216784955  0.6610183445233427  0.7111141405576782  1.0000
  C   C2116     1.0  0.5550635725270809  0.6443948341990045  0.71263160503155  1.0000
  C   C2117     1.0  0.5458797838077336  0.6231905366723859  0.7266666217127726  1.0000
  C   C2118     1.0  0.5634212648263585  0.6199937623191896  0.739702742928836  1.0000
  C   C2119     1.0  0.5914462233819646  0.6379744681481144  0.7386380702737808  1.0000
  C   C2120     1.0  0.6013231538140935  0.6591572111755793  0.724466910106495  1.0000
  C   C2121     1.0  0.535436828413068  0.647648298687155  0.6966293914618201  1.0000
  C   C2122     1.0  0.5408119262012162  0.6342643514237611  0.6765811158624626  1.0000
  C   C2123     1.0  0.5317885836394356  0.6064298328076048  0.6757673143502653  1.0000
  C   C2124     1.0  0.5362235829463381  0.5947658760967658  0.6587157251463863  1.0000
  C   C2125     1.0  0.5502057582712487  0.6105281873431021  0.6423234375435544  1.0000
  C   C2126     1.0  0.560292494066597  0.6387020398509282  0.6432795013501771  1.0000
  C   C2127     1.0  0.5563101880231007  0.6503592368420494  0.6603540360854151  1.0000
  C   C2128     1.0  0.5009061270392119  0.6431603555224381  0.7235567373625901  1.0000
  C   C2129     1.0  0.9760796053777612  0.6303236972063013  0.7330271230054732  1.0000
  C   C2130     1.0  0.9534456831916227  0.6078672688658291  0.7242145092615466  1.0000
  C   C2131     1.0  0.9567807390150614  0.5999527356937696  0.7050473420663725  1.0000
  C   C2132     1.0  0.9821437645059917  0.6127122372348036  0.6955540108921309  1.0000
  C   C2133     1.0  0.5047855496444019  0.6331712160225804  0.7052966835071399  1.0000
  C   C2134     1.0  0.9250892977304005  0.591629361703033  0.7364521259863185  1.0000
  C   C2135     1.0  0.9587481407995617  0.5511523129269912  0.7756415638453097  1.0000
  C   C2136     1.0  0.956853769107682  0.5729656786058186  0.7835057622930662  1.0000
  C   C2137     1.0  0.9449092457513414  0.5850675030040361  0.7716888136432085  1.0000
  C   C2138     1.0  0.935962967640344  0.5764555444892498  0.7516910182128406  1.0000
  C   C2139     1.0  0.9392565361133515  0.5547732621858487  0.7443943392406954  1.0000
  C   C2140     1.0  0.9504664590433745  0.5424508307914866  0.7559405306205176  1.0000
  C   C2141     1.0  0.898121490367868  0.5721918636002287  0.7230244010350628  1.0000
  C   C2142     1.0  0.890434344377644  0.5830745363105787  0.7066856530054014  1.0000
  C   C2143     1.0  0.8652927424294733  0.568539986321149  0.6975288562910908  1.0000
  C   C2144     1.0  0.8462833804341399  0.5431438525907997  0.7046312630977303  1.0000
  C   C2145     1.0  0.8536366993983066  0.5320361110183285  0.720410140162233  1.0000
  C   C2146     1.0  0.8794692796993472  0.5457613145622808  0.7288801006378658  1.0000
  C   C2147     1.0  0.8976992027410206  0.6022478667807376  0.7635829222651376  1.0000
  C   C2148     1.0  0.8880663046166336  0.618644460030241  0.7712390812285731  1.0000
  C   C2149     1.0  0.8954803147835277  0.6435469136053984  0.7618727153278508  1.0000
  C   C2150     1.0  0.9131648965424628  0.6523826937978635  0.7457144721448802  1.0000
  C   C2151     1.0  0.9224235407322063  0.636020292802703  0.7380996151378908  1.0000
  C   C2152     1.0  0.9160739412509676  0.6113212249696551  0.7474415058051636  1.0000
  H   H1641     1.0  0.5922967668809092  0.6770716463480941  0.6996367857719329  1.0000
  H   H1642     1.0  0.5244923681950351  0.6072359595136368  0.7272173144653874  1.0000
  H   H1643     1.0  0.5554429058135368  0.6018867762731294  0.7494790689898382  1.0000
  H   H1644     1.0  0.6230863302467402  0.6723791166989344  0.7232018464775716  1.0000
  H   H1645     1.0  0.5201994729304998  0.5942028884978844  0.6888936879896738  1.0000
  H   H1646     1.0  0.5294171366550875  0.5730736712033287  0.6582063343502176  1.0000
  H   H1647     1.0  0.572230753596471  0.6517812358074636  0.6302602068571105  1.0000
  H   H1648     1.0  0.5641561234138114  0.6717977232426415  0.6599119521812327  1.0000
  H   H1649     1.0  0.5176498779297473  0.6599254166369821  0.7316366238051206  1.0000
  H   H1650     1.0  0.9745143466178028  0.6381759905882225  0.7478224016257221  1.0000
  H   H1651     1.0  0.9401627721721524  0.582534736394753  0.6970408813241906  1.0000
  H   H1652     1.0  0.9842157872734684  0.6062234413028537  0.6806378858067245  1.0000
  H   H1653     1.0  0.9627481216727671  0.5788460883975305  0.7991117830213316  1.0000
  H   H1654     1.0  0.9436903520316716  0.6022249684569125  0.7782084039533309  1.0000
  H   H1655     1.0  0.9336455714954706  0.5480040914804043  0.728765372981071  1.0000
  H   H1656     1.0  0.9512550216456507  0.5245916678753175  0.7501659052285159  1.0000
  H   H1657     1.0  0.9042923245857949  0.6037783009411833  0.7017707201883149  1.0000
  H   H1658     1.0  0.860118554284712  0.5784345379081225  0.6855910611760759  1.0000
  H   H1659     1.0  0.8380866398767599  0.5128638031837786  0.7268455968573725  1.0000
  H   H1660     1.0  0.8836841504864213  0.5365169495256682  0.7418749198974832  1.0000
  H   H1661     1.0  0.8898918851748934  0.5821941817732108  0.7703197302721246  1.0000
  H   H1662     1.0  0.8747041944791292  0.6119202805803321  0.7847601180073553  1.0000
  H   H1663     1.0  0.9184544254214225  0.6717110439570806  0.7381990457737796  1.0000
  H   H1664     1.0  0.9346890070463274  0.6427255521323639  0.7242389844949961  1.0000
  C   C2153     1.0  0.5621657141220411  0.769888376881908  0.527675325257529  1.0000
  C   C2154     1.0  0.5401073717201406  0.769149090513153  0.5371686564317709  1.0000
  C   C2155     1.0  0.53140194373659  0.7870763815712833  0.5306918977801853  1.0000
  C   C2156     1.0  0.5452607843221738  0.8065130523357988  0.515434649128576  1.0000
  C   C2157     1.0  0.5651913290032181  0.8039662359932452  0.5047542691320313  1.0000
  C   C2158     1.0  0.5739270663256133  0.7864891744973521  0.5110612308515606  1.0000
  H   H1665     1.0  0.5299470468806112  0.7549641470268506  0.5496556145973099  1.0000
  H   H1666     1.0  0.5137576766507798  0.7859753476640186  0.5386815317993711  1.0000
  H   H1667     1.0  0.5754527884808734  0.8170312147724166  0.49137243524349333  1.0000
  H   H1668     1.0  0.5899017990273272  0.7855437283554105  0.5030823047470093  1.0000
  C   C2159     1.0  0.5843999310208676  0.8671967072108833  0.5004940488097201  1.0000
  C   C2160     1.0  0.5562263031663903  0.8529042610512942  0.49545215071911414  1.0000
  C   C2161     1.0  0.5479028675644296  0.8623738300560121  0.4785198782783016  1.0000
  C   C2162     1.0  0.5665652394476441  0.883233851054808  0.4667274048618933  1.0000
  C   C2163     1.0  0.5938064215978778  0.8965280030089366  0.47114059539326414  1.0000
  C   C2164     1.0  0.6020668562977188  0.888852247485494  0.48832526867902504  1.0000
  C   C2165     1.0  0.5351542591609971  0.8275735277227724  0.5095498851860513  1.0000
  C   C2166     1.0  0.5338591683684056  0.8441624069620903  0.5291377204561393  1.0000
  C   C2167     1.0  0.5219286468824286  0.8603491375162813  0.5273449096059604  1.0000
  C   C2168     1.0  0.52170082869668  0.8761685354193285  0.5433134697296971  1.0000
  C   C2169     1.0  0.5329214444257189  0.875296297190288  0.5619559491077962  1.0000
  C   C2170     1.0  0.5449268806267724  0.8595314270377047  0.5639323242088469  1.0000
  C   C2171     1.0  0.5466871152022075  0.8450754841974166  0.5478077344718694  1.0000
  C   C2172     1.0  0.507593818974847  0.7945124945806985  0.4801933723654144  1.0000
  C   C2173     1.0  0.9841736941717378  0.7784168875625096  0.46884757195946003  1.0000
  C   C2174     1.0  0.9595385016648444  0.7770551978681167  0.47388335124170367  1.0000
  C   C2175     1.0  0.959300650569107  0.7904802955249398  0.4913831431581274  1.0000
  C   C2176     1.0  0.982223018553045  0.8040554791438695  0.5037125420083352  1.0000
  C   C2177     1.0  0.507307554423138  0.8079786429997741  0.49762279798567055  1.0000
  C   C2178     1.0  0.9334763308220405  0.7611859101697059  0.45918444385316226  1.0000
  C   C2179     1.0  0.9651262596096627  0.8295978315281429  0.41601472115443866  1.0000
  C   C2180     1.0  0.9668942490132423  0.806641035997709  0.41167954542968827  1.0000
  C   C2181     1.0  0.9562112670218992  0.7847030685126423  0.425017017957599  1.0000
  C   C2182     1.0  0.9418871119688631  0.7842712717833433  0.4421940427329069  1.0000
  C   C2183     1.0  0.9397245145093962  0.8070337332704501  0.44570164962664466  1.0000
  C   C2184     1.0  0.9510692463743197  0.8293861209775976  0.43320092414229017  1.0000
  C   C2185     1.0  0.9041383587164699  0.75049874432507  0.4693003637782766  1.0000
  C   C2186     1.0  0.8987939085780503  0.739456610826198  0.4886618031389563  1.0000
  C   C2187     1.0  0.8731575925074319  0.7299090597573255  0.4972036596128471  1.0000
  C   C2188     1.0  0.8517502147397117  0.728480448131137  0.4859572898427819  1.0000
  C   C2189     1.0  0.8564480478049081  0.7380470451680536  0.4659090142434242  1.0000
  C   C2190     1.0  0.8826657390762678  0.7495040223076291  0.4579790386057722  1.0000
  C   C2191     1.0  0.9118386674614407  0.7211601992733014  0.4328842758095367  1.0000
  C   C2192     1.0  0.9046569655293245  0.6956410447461323  0.42579563632171274  1.0000
  C   C2193     1.0  0.9132099310717158  0.68000254950311  0.43655250142278706  1.0000
  C   C2194     1.0  0.9283657802946245  0.6902809219684067  0.4545127336684804  1.0000
  C   C2195     1.0  0.9349900381720543  0.7158900077858166  0.4613015515465476  1.0000
  C   C2196     1.0  0.9278794540978933  0.7323351867597573  0.45038712713014184  1.0000
  H   H1669     1.0  0.592368174255267  0.8608768285782518  0.512939705018813  1.0000
  H   H1670     1.0  0.5267106229233844  0.8525736240814067  0.47367684145947314  1.0000
  H   H1671     1.0  0.5585670221010222  0.8891592819698048  0.45295090783398134  1.0000
  H   H1672     1.0  0.6243076700334206  0.8992529383821258  0.4913831431581274  1.0000
  H   H1673     1.0  0.514186705526145  0.8618100966142656  0.5125175072418084  1.0000
  H   H1674     1.0  0.5122062399672278  0.8888086400143198  0.5409041889370075  1.0000
  H   H1675     1.0  0.5547421435658556  0.8589865685501461  0.5777455340869332  1.0000
  H   H1676     1.0  0.5584446548781613  0.8344447012923749  0.5500931093952205  1.0000
  H   H1677     1.0  0.5267781621094932  0.797142572401694  0.4746237270535524  1.0000
  H   H1678     1.0  0.984833456405375  0.767870160435407  0.45554222317545184  1.0000
  H   H1679     1.0  0.9404586150912638  0.7891656905470531  0.4962353581894995  1.0000
  H   H1680     1.0  0.978819628975344  0.812587440361894  0.5177444992853767  1.0000
  H   H1681     1.0  0.9777636193681621  0.805832951829039  0.3982120482240768  1.0000
  H   H1682     1.0  0.9602363760981094  0.7681999999956893  0.42202492066839226  1.0000
  H   H1683     1.0  0.928777989926748  0.8073415949534551  0.4588157856493283  1.0000
  H   H1684     1.0  0.9490843384750823  0.8472867527290469  0.43703282787923436  1.0000
  H   H1685     1.0  0.9143302737038957  0.737715268696468  0.4978185998532669  1.0000
  H   H1686     1.0  0.8698916257827444  0.7209845422179225  0.5124333736268256  1.0000
  H   H1687     1.0  0.8397963270305633  0.7356409668811998  0.45595677244200344  1.0000
  H   H1688     1.0  0.8847818658308374  0.7546799959170415  0.4418391518478885  1.0000
  H   H1689     1.0  0.9038035403002254  0.7322688126293738  0.42431641440010576  1.0000
  H   H1690     1.0  0.8927704215306305  0.6887730458193434  0.4123006044784704  1.0000
  H   H1691     1.0  0.9353573540305646  0.6786297068877883  0.4639142827172864  1.0000
  H   H1692     1.0  0.9468567290356892  0.7225008509807737  0.47526008312324053  1.0000
  C   C2197     1.0  0.7224063382508861  0.9133846921728407  0.3767013774261092  1.0000
  C   C2198     1.0  0.7016114911414912  0.9066118452443157  0.3904579883268432  1.0000
  C   C2199     1.0  0.6930255850365765  0.9250577200494133  0.39445357018748123  1.0000
  C   C2200     1.0  0.7056208805330798  0.9508617587745514  0.385682258400001  1.0000
  C   C2201     1.0  0.72565848201464  0.9570002854373908  0.3712342221543172  1.0000
  C   C2202     1.0  0.7340944750813987  0.9382106211330248  0.36698318004454955  1.0000
  H   H1693     1.0  0.6923415511528124  0.8870286110223952  0.39844456294184744  1.0000
  H   H1694     1.0  0.6758039263762063  0.9193416603363567  0.40446700007252595  1.0000
  H   H1695     1.0  0.7351921013216531  0.9761697352454133  0.36293864771701245  1.0000
  H   H1696     1.0  0.7493176427765881  0.942921208231639  0.3555042955567136  1.0000
  C   C2203     1.0  0.6888085902430577  0.9625452500079291  0.42919157496283683  1.0000
  C   C2204     1.0  0.6818030467031817  0.9715140676082915  0.4114669168390953  1.0000
  C   C2205     1.0  0.6615809333067771  0.9792069620820746  0.41362991559519874  1.0000
  C   C2206     1.0  0.64749337012721  0.9745986256306158  0.4314494152485572  1.0000
  C   C2207     1.0  0.6530669432640381  0.9630513637114195  0.44809257399424696  1.0000
  C   C2208     1.0  0.6751064527368111  0.9587989315722075  0.4472007576754292  1.0000
  C   C2209     1.0  0.6954620458599475  0.97281065441075  0.3899516569348558  1.0000
  C   C2210     1.0  0.6732991003866479  0.9629555205447993  0.37195318213689754  1.0000
  C   C2211     1.0  0.6806010044187026  0.9735369710484162  0.3526208071159392  1.0000
  C   C2212     1.0  0.6617639169611671  0.9629068708560274  0.33669354894864856  1.0000
  C   C2213     1.0  0.6353915326894168  0.9415470147631585  0.33991816095562594  1.0000
  C   C2214     1.0  0.6288710863275927  0.9296674892828879  0.35904402619435377  1.0000
  C   C2215     1.0  0.6472169454229004  0.9408610910400783  0.3749253932989265  1.0000
  C   C2216     1.0  0.7438719842802383  0.5117916603695704  0.3998580076735588  1.0000
  C   C2217     1.0  0.7620742271211799  0.5389674068761411  0.40522420260737113  1.0000
  C   C2218     1.0  0.7551074182568918  0.5592166856806324  0.40189710056032374  1.0000
  C   C2219     1.0  0.7314687756990921  0.5514136788858345  0.3899409490202216  1.0000
  C   C2220     1.0  0.7135279596373609  0.5244410678990363  0.3849571796090583  1.0000
  C   C2221     1.0  0.7188101309938277  0.503768798465616  0.39049164177283635  1.0000
  C   C2222     1.0  0.7698118095395544  0.5870817620118731  0.414758835738059  1.0000
  C   C2223     1.0  0.7013035623167698  0.5542531001658406  0.4577511129942731  1.0000
  C   C2224     1.0  0.7225614494264414  0.5486954840993801  0.46048316092807845  1.0000
  C   C2225     1.0  0.7447738804801127  0.5595983683592036  0.4476045990273467  1.0000
  C   C2226     1.0  0.7466011562952023  0.5773536967034323  0.43172476162486456  1.0000
  C   C2227     1.0  0.7248837238979605  0.5826101663555073  0.4291349759854847  1.0000
  C   C2228     1.0  0.7034669559099719  0.571981463693999  0.44253669600120055  1.0000
  C   C2229     1.0  0.7750118647876097  0.6139492529157589  0.4028256297293158  1.0000
  C   C2230     1.0  0.7808491673880793  0.6170885687052128  0.38221595346270937  1.0000
  C   C2231     1.0  0.7897012615886878  0.6419295158221284  0.37250081548533104  1.0000
  C   C2232     1.0  0.7947280941774448  0.664934266739358  0.384033239546338  1.0000
  C   C2233     1.0  0.788998713182951  0.6619896989589222  0.4047897672136417  1.0000
  C   C2234     1.0  0.777767598191557  0.6364283193558865  0.41352742555512895  1.0000
  C   C2235     1.0  0.8093312254617907  0.6088767061331816  0.44233018621897013  1.0000
  C   C2236     1.0  0.8367241324335059  0.6200609279131053  0.44752352481654506  1.0000
  C   C2237     1.0  0.8547010228162403  0.6182562092823275  0.4346342550011791  1.0000
  C   C2238     1.0  0.8458008089224444  0.6061284015550636  0.4158357460098389  1.0000
  C   C2239     1.0  0.819050925551189  0.5969651185872523  0.4100886552554679  1.0000
  C   C2240     1.0  0.8000630150697455  0.5971812837686021  0.42340318225201967  1.0000
  H   H1697     1.0  0.7050765197560368  0.9579047468132947  0.4288473919924526  1.0000
  H   H1698     1.0  0.6556541524689082  0.986751684529645  0.40035822025718365  1.0000
  H   H1699     1.0  0.6305479118860503  0.9787101630657353  0.43148306869455033  1.0000
  H   H1700     1.0  0.6801941487087262  0.9492048503552649  0.4598009137956726  1.0000
  H   H1701     1.0  0.7009270508519252  0.9908060737275147  0.3502084669190685  1.0000
  H   H1702     1.0  0.6677563928910228  0.9728294245917731  0.3218783842012216  1.0000
  H   H1703     1.0  0.6082511370731902  0.91218391666704  0.3616536979609114  1.0000
  H   H1704     1.0  0.6411025273009141  0.9322776224989491  0.3898430480864234  1.0000
  H   H1705     1.0  0.7494877050426095  0.9968705235619462  0.4053190441369882  1.0000
  H   H1706     1.0  0.7796058209551174  0.5428195183375152  0.41510454841053374  1.0000
  H   H1707     1.0  0.7265884281742991  0.5671480539128932  0.38587041175714437  1.0000
  H   H1708     1.0  0.694004456022127  0.5197026616117556  0.377937376715311  1.0000
  H   H1709     1.0  0.72116483137694  0.5349536061260103  0.47231693630093285  1.0000
  H   H1710     1.0  0.7605635577409585  0.5540891131166521  0.44967581565801434  1.0000
  H   H1711     1.0  0.7247307421421266  0.5961507319499016  0.41733944316489524  1.0000
  H   H1712     1.0  0.6876697268772031  0.5774408170459248  0.44018860329213505  1.0000
  H   H1713     1.0  0.7774680635248229  0.5993564517054826  0.373316146699619  1.0000
  H   H1714     1.0  0.7947738459796005  0.6441839975437095  0.3563226861751827  1.0000
  H   H1715     1.0  0.7929254955081317  0.6792402835738615  0.41399704409694194  1.0000
  H   H1716     1.0  0.7751384149856827  0.6348971570174735  0.4298355795429779  1.0000
  H   H1717     1.0  0.7956845798835208  0.6103508031274656  0.4534312342904287  1.0000
  H   H1718     1.0  0.8426406482436123  0.6284688934400017  0.4629444515918482  1.0000
  H   H1719     1.0  0.859221481149089  0.6027086135266274  0.4059462219941326  1.0000
  H   H1720     1.0  0.8137382099090833  0.5882054762810597  0.39486506004985167  1.0000
  C   C2241     1.0  0.7722682005613357  0.9921488804600975  0.68275499350011  1.0000
  C   C2242     1.0  0.74994202926993  0.9780554162788824  0.6955264762545  1.0000
  C   C2243     1.0  0.7251334578551433  0.9759589195750078  0.6898726973276554  1.0000
  C   C2244     1.0  0.7223500054646711  0.9869265335583339  0.6718237423607076  1.0000
  C   C2245     1.0  0.7437875917640812  0.9964348821047245  0.6579386364843632  1.0000
  C   C2246     1.0  0.7685897907097092  0.9999140413994324  0.6638386974477942  1.0000
  H   H1721     1.0  0.7515742894107739  0.9702779407187309  0.7102253836430417  1.0000
  H   H1722     1.0  0.7073967010795216  0.9649438747837051  0.6992818948869144  1.0000
  H   H1723     1.0  0.740991021186972  0.5024180860758836  0.6428068234041828  1.0000
  H   H1724     1.0  0.7849390868918938  0.5092360125318399  0.6530374709860921  1.0000
  C   C2247     1.0  0.7221086081072816  0.5393560403533768  0.6557618704094444  1.0000
  C   C2248     1.0  0.699324937114767  0.5127269244069746  0.6532133867265106  1.0000
  C   C2249     1.0  0.6788121652485333  0.5096621026738177  0.6397963696898893  1.0000
  C   C2250     1.0  0.681013324931185  0.5312642749422019  0.6282807723518786  1.0000
  C   C2251     1.0  0.7043315294616581  0.5568760557980004  0.6301363009877721  1.0000
  C   C2252     1.0  0.7239179554056793  0.5607873524843299  0.6442432136672529  1.0000
  C   C2253     1.0  0.6949261823205809  0.9871612864683245  0.6669348144791611  1.0000
  C   C2254     1.0  0.680176844096314  0.9920681055187055  0.6862503627771229  1.0000
  C   C2255     1.0  0.6525755716238097  0.9844045522850935  0.6851719228032526  1.0000
  C   C2256     1.0  0.641491295502781  0.9915906970334776  0.7009752751012047  1.0000
  C   C2257     1.0  0.6569555814977097  0.5059767504207967  0.7177484585245952  1.0000
  C   C2258     1.0  0.6841947944033215  0.5135221807635416  0.718568378845155  1.0000
  C   C2259     1.0  0.6957376392366453  0.5082176517606385  0.7027436107179343  1.0000
  C   C2260     1.0  0.6852813346486898  0.9560577299558939  0.6353938870731523  1.0000
  C   C2261     1.0  0.6723866027390879  0.9313209712608574  0.6252305463832293  1.0000
  C   C2262     1.0  0.6529428709807829  0.9080196778687564  0.6354168326045112  1.0000
  C   C2263     1.0  0.6477265867140228  0.910553736596376  0.6559943851272151  1.0000
  C   C2264     1.0  0.6617662234757822  0.9351707894204624  0.6658150725488445  1.0000
  C   C2265     1.0  0.679665178310898  0.9584596997643483  0.6555936031794788  1.0000
  C   C2266     1.0  0.634560315766372  0.8811055298267652  0.6224510776846155  1.0000
  C   C2267     1.0  0.5797509397408608  0.9094360560724203  0.597243116933676  1.0000
  C   C2268     1.0  0.6030063104441  0.9142074857557675  0.5867570091026371  1.0000
  C   C2269     1.0  0.6192370576893625  0.9036893793626487  0.5937936387193808  1.0000
  C   C2270     1.0  0.6133223493778971  0.8890670480232193  0.6119879153849355  1.0000
  C   C2271     1.0  0.590400736475677  0.8851553510564134  0.6224740232159744  1.0000
  C   C2272     1.0  0.5744721185069889  0.8957598955212992  0.6154817549598578  1.0000
  C   C2273     1.0  0.6198160403587774  0.8527348453979  0.6348126002787255  1.0000
  C   C2274     1.0  0.6343098328661142  0.847495786291772  0.6498052104686617  1.0000
  C   C2275     1.0  0.6243029414992896  0.82175525332521  0.6583654233676397  1.0000
  C   C2276     1.0  0.5995339120104313  0.8004699373979474  0.6517586400383535  1.0000
  C   C2277     1.0  0.5848452015628821  0.8050752401726043  0.6365426933431902  1.0000
  C   C2278     1.0  0.5948065900060533  0.8307541656661092  0.6280620249529233  1.0000
  C   C2279     1.0  0.6357372106453162  0.855073240445967  0.5902921506340055  1.0000
  C   C2280     1.0  0.6463762400949286  0.8413791027927895  0.5799513645015734  1.0000
  C   C2281     1.0  0.6724568371327045  0.8467603716936783  0.5839805998082044  1.0000
  C   C2282     1.0  0.6887281678293093  0.8674324692687194  0.5971681615312368  1.0000
  C   C2283     1.0  0.6778348260898646  0.8800191560348791  0.6084650114702921  1.0000
  C   C2284     1.0  0.6505039413136969  0.873195885619364  0.6059761861688914  1.0000
  H   H1725     1.0  0.7371235724158621  0.5435189635076595  0.6677180219495465  1.0000
  H   H1726     1.0  0.6595150456107141  0.9906139027707394  0.6390284592404095  1.0000
  H   H1727     1.0  0.6641104264211625  0.5271204524389662  0.618521273013873  1.0000
  H   H1728     1.0  0.7422023609814021  0.5803519621133786  0.6462348857892096  1.0000
  H   H1729     1.0  0.6403833290444265  0.9737140147997049  0.6720027175053076  1.0000
  H   H1730     1.0  0.6199858835581664  0.9868596022896892  0.6999213103607838  1.0000
  H   H1731     1.0  0.6971736325164658  0.5240830768250154  0.7312572576866527  1.0000
  H   H1732     1.0  0.7180631229315239  0.5163341673692077  0.7031030907092245  1.0000
  H   H1733     1.0  0.6999081501544514  0.9738599760460986  0.6275572232630264  1.0000
  H   H1734     1.0  0.6757298465266981  0.9301975202738774  0.609491441573082  1.0000
  H   H1735     1.0  0.6320531477309346  0.8937538300771756  0.6644031575192241  1.0000
  H   H1736     1.0  0.6571411594046482  0.9367837403934384  0.6815434694443576  1.0000
  H   H1737     1.0  0.6084617449651765  0.9253606315321714  0.572472650980647  1.0000
  H   H1738     1.0  0.6374977172991521  0.9076503872960596  0.5849718467629114  1.0000
  H   H1739     1.0  0.5856267785367668  0.8749691594585617  0.6369817178431918  1.0000
  H   H1740     1.0  0.5574177429448318  0.8927677732245597  0.6244228636793944  1.0000
  H   H1741     1.0  0.6541653640947186  0.8635804885877372  0.6555140586707678  1.0000
  H   H1742     1.0  0.6359440552371831  0.8182458976144439  0.6699054959390999  1.0000
  H   H1743     1.0  0.565950408114271  0.7886776332024791  0.6306059195295852  1.0000
  H   H1744     1.0  0.5831013291749132  0.832826894125914  0.6156943835504507  1.0000
  H   H1745     1.0  0.6140278618881408  0.848957584192792  0.5878721619266819  1.0000
  H   H1746     1.0  0.6332791205241678  0.8250788298555424  0.5694453705433566  1.0000
  H   H1747     1.0  0.7098825294567971  0.8729217042477979  0.6003315854545902  1.0000
  H   H1748     1.0  0.6905975003873362  0.8941820360091379  0.620344677905864  1.0000
  C   C2285     1.0  0.7852401300981237  0.7181878491894187  0.5111606614874494  1.0000
  C   C2286     1.0  0.7627002468302359  0.7065353483101451  0.4984962578794011  1.0000
  C   C2287     1.0  0.7374127051146523  0.6871343283131026  0.5061279416093873  1.0000
  C   C2288     1.0  0.735104101892381  0.6778501127217037  0.5263353062261669  1.0000
  C   C2289     1.0  0.7574751706064764  0.6929637760861719  0.5390150068551208  1.0000
  C   C2290     1.0  0.7819401895421465  0.712864762402684  0.5315240557174697  1.0000
  H   H1749     1.0  0.7649823246855335  0.7108268028344403  0.4822691781023536  1.0000
  H   H1750     1.0  0.7192494400696381  0.6779278053047595  0.49607320976789626  1.0000
  H   H1751     1.0  0.7560869503415905  0.6882940272410902  0.5548566017053379  1.0000
  H   H1752     1.0  0.7989284666144731  0.7225919764931374  0.5423619950293459  1.0000
  C   C2291     1.0  0.7333419576955799  0.6302990426712342  0.552597231717527  1.0000
  C   C2292     1.0  0.7108263325755924  0.6337628484418278  0.5510507029039342  1.0000
  C   C2293     1.0  0.6884920201095065  0.6175921610230528  0.5632577255868938  1.0000
  C   C2294     1.0  0.6888456558660283  0.599769374160102  0.5774334748604515  1.0000
  C   C2295     1.0  0.7125346592570057  0.598290035830877  0.5800783297750928  1.0000
  C   C2296     1.0  0.734429157090821  0.6136651125951259  0.5674888815694837  1.0000
  C   C2297     1.0  0.7073471519876239  0.650745703468377  0.5331654260606798  1.0000
  C   C2298     1.0  0.6939110617882889  0.626461842151625  0.5166813563324122  1.0000
  C   C2299     1.0  0.6657804048207222  0.6083151796546773  0.5141818231163774  1.0000
  C   C2300     1.0  0.6558236643713738  0.5866724205577178  0.5004252122156433  1.0000
  C   C2301     1.0  0.6738613624483235  0.5815286440678776  0.4896836441354747  1.0000
  C   C2302     1.0  0.7017878274994584  0.5988616297926718  0.49234073666684086  1.0000
  C   C2303     1.0  0.7116150224665672  0.6208420725984694  0.5055527736233227  1.0000
  C   C2304     1.0  0.6957324970364411  0.6783234210163274  0.5577844515067396  1.0000
  C   C2305     1.0  0.6817682425142474  0.6904601777300169  0.5645487941513573  1.0000
  C   C2306     1.0  0.6601888562464571  0.6889764817268285  0.5529918948569009  1.0000
  C   C2307     1.0  0.6552005534515835  0.6771187959104503  0.5335662080084161  1.0000
  C   C2308     1.0  0.669994744864631  0.6649791519538035  0.527136870121639  1.0000
  C   C2309     1.0  0.689570465901259  0.6641821942480455  0.5394647392697561  1.0000
  C   C2310     1.0  0.6394175263333146  0.696576530413066  0.5636202649823653  1.0000
  C   C2311     1.0  0.5988832116760429  0.6267713934627196  0.6052908796323041  1.0000
  C   C2312     1.0  0.6160557755813676  0.6523208260720781  0.6130984791027085  1.0000
  C   C2313     1.0  0.6306239558346315  0.6749719362915448  0.6004922041741032  1.0000
  C   C2314     1.0  0.6261772988123221  0.6720869291604175  0.5795215182141157  1.0000
  C   C2315     1.0  0.6086720904931999  0.645942627277723  0.572185066987615  1.0000
  C   C2316     1.0  0.5955859060149058  0.623469034598628  0.5846353123029797  1.0000
  C   C2317     1.0  0.6180821795730821  0.6994960502113332  0.5490467931652525  1.0000
  C   C2318     1.0  0.6274721472803781  0.7165695722000174  0.5319844960467394  1.0000
  C   C2319     1.0  0.6107612924794166  0.7244190420942929  0.5224131500658771  1.0000
  C   C2320     1.0  0.5842335754196889  0.7146325271892137  0.5289342700780899  1.0000
  C   C2321     1.0  0.5738258745674549  0.6956377228492621  0.5444209740432888  1.0000
  C   C2322     1.0  0.5904678231038526  0.6879729618047962  0.5546837453691009  1.0000
  C   C2323     1.0  0.6422346099734211  0.7348516932045688  0.5878507460974135  1.0000
  C   C2324     1.0  0.6534329911152463  0.761546335890653  0.5944605888308809  1.0000
  C   C2325     1.0  0.6778286532961757  0.7818039791350873  0.5862965687733676  1.0000
  C   C2326     1.0  0.6908952079948812  0.7744705898924957  0.5718255869963248  1.0000
  C   C2327     1.0  0.6799128789441283  0.7475749175241537  0.5656593578691304  1.0000
  C   C2328     1.0  0.6552454515194417  0.7269856798505948  0.573447071212357  1.0000
  H   H1753     1.0  0.7506977508655502  0.6409563506199575  0.5421111238864881  1.0000
  H   H1754     1.0  0.6692884055246752  0.6178651433004643  0.5615903503081437  1.0000
  H   H1755     1.0  0.6710943764276251  0.5872327877968772  0.586723355656644  1.0000
  H   H1756     1.0  0.7532450228172274  0.6127022523521242  0.569127192508513  1.0000
  H   H1757     1.0  0.6513779529812148  0.6107013990064466  0.5236980998219782  1.0000
  H   H1758     1.0  0.6337565313364467  0.5724041914606752  0.49977814823132094  1.0000
  H   H1759     1.0  0.7165125088655789  0.5955940420232528  0.4851817308828493  1.0000
  H   H1760     1.0  0.7339256434382931  0.6329487773687553  0.5073471141755924  1.0000
  H   H1761     1.0  0.7118912357425216  0.6799304643479154  0.5679263763673944  1.0000
  H   H1762     1.0  0.6869556869926534  0.7001358185185079  0.5793563103883314  1.0000
  H   H1763     1.0  0.6385212052519411  0.6750388424163828  0.5242304361495057  1.0000
  H   H1764     1.0  0.6666123087875387  0.6565490145110021  0.5119209234264759  1.0000
  H   H1765     1.0  0.6180037172393449  0.6550807179716985  0.6295779597247044  1.0000
  H   H1766     1.0  0.6451953875851392  0.694763725928648  0.6071861805225535  1.0000
  H   H1767     1.0  0.6048937816914062  0.6427778371081009  0.5557728932576053  1.0000
  H   H1768     1.0  0.5822427737090673  0.6036581158236586  0.5781111328865858  1.0000
  H   H1769     1.0  0.6481350456472188  0.725730465659264  0.5268707019578753  1.0000
  H   H1770     1.0  0.618078641377681  0.7393508849100721  0.5101663551285618  1.0000
  H   H1771     1.0  0.5529873254267809  0.6882899238961853  0.5490605604840679  1.0000
  H   H1772     1.0  0.5816257609046681  0.6739798341248093  0.5674445202088568  1.0000
  H   H1773     1.0  0.6224848494077435  0.7199097990151585  0.5934616933657215  1.0000
  H   H1774     1.0  0.6421006731894427  0.7671125485412504  0.6051807410817811  1.0000
  H   H1775     1.0  0.7088349546817706  0.7895022599126488  0.5639078489753974  1.0000
  H   H1776     1.0  0.6900456471371298  0.7433559711780342  0.5532963055729295  1.0000
  C   C2329     1.0  0.7069034617816328  0.5807384026623127  0.6168477789267605  1.0000
  C   C2330     1.0  0.7123815612213609  0.576403924885143  0.594290791898825  1.0000
  H   H1777     1.0  0.6869704020120941  0.5802623185284038  0.6170680560278065  1.0000
  H   H1778     1.0  0.7234347021885179  0.6018386912979143  0.6221573748832212  1.0000
  H   H1779     1.0  0.6961682827743164  0.5562465902955074  0.5887456218204125  1.0000
  H   H1780     1.0  0.7325287065249868  0.5773921063278786  0.5928421640190299  1.0000
  C   C2331     1.0  0.6883862403984125  0.8122791601666416  0.5913507044806983  1.0000
  C   C2332     1.0  0.6826349924390254  0.828678799095269  0.5750731445346612  1.0000
  H   H1781     1.0  0.6799390888672326  0.8142693915072472  0.6061107999528639  1.0000
  H   H1782     1.0  0.710707638635649  0.8215303376496783  0.5945952026148534  1.0000
  H   H1783     1.0  0.6683397747456717  0.8151900682914842  0.5628003446618055  1.0000
  H   H1784     1.0  0.7020835255139631  0.8423972208306566  0.566304892151362  1.0000
  C   C2333     1.0  0.6768784159734071  0.5411448729802971  0.4726228767190522  1.0000
  C   C2334     1.0  0.659739427336285  0.5551598058084372  0.4765955130483312  1.0000
  H   H1785     1.0  0.685026664593092  0.53953628372461  0.48800097183581864  1.0000
  H   H1786     1.0  0.6621517129581808  0.5195289847789385  0.46822957231485907  1.0000
  H   H1787     1.0  0.6400763692283193  0.5396592072942624  0.4836734446215212  1.0000
  H   H1788     1.0  0.6527713922084204  0.5597842354565454  0.46240293705177726  1.0000
  C   C2335     1.0  0.5325691823369102  0.8934842154847155  0.5788958700590617  1.0000
  C   C2336     1.0  0.5605024427610402  0.918222507642245  0.5869176278221496  1.0000
  H   H1789     1.0  0.5206271158039493  0.9032845361740004  0.5735908632088732  1.0000
  H   H1790     1.0  0.5204432957753976  0.8806431010261125  0.5920084763796547  1.0000
  H   H1791     1.0  0.5710557594259219  0.9331849054000466  0.5744245508482482  1.0000
  H   H1792     1.0  0.5549782374725784  0.929303696425397  0.598266487632285  1.0000
  C   C2337     1.0  0.6135184824612098  0.9173982140540318  0.4558558121040241  1.0000
  C   C2338     1.0  0.6309339922078095  0.9468014290332398  0.46400453514063156  1.0000
  H   H1793     1.0  0.626965727443515  0.9096543094393126  0.4506181121458217  1.0000
  H   H1794     1.0  0.6017374104402079  0.9169471152371487  0.4416464093844735  1.0000
  H   H1795     1.0  0.6174669728320089  0.9560240310239358  0.465723920290462  1.0000
  H   H1796     1.0  0.641268168131153  0.9476562034574673  0.47866825938108964  1.0000
  C   C2339     1.0  0.9063678209893534  0.6516304969603235  0.42951128269977146  1.0000
  C   C2340     1.0  0.8835440575043445  0.625943089885044  0.4411951472677474  1.0000
  H   H1797     1.0  0.9024528888846219  0.649751424903753  0.4129507278669739  1.0000
  H   H1798     1.0  0.9255105963880534  0.6511423559376494  0.430820707689322  1.0000
  H   H1799     1.0  0.8863014469031746  0.628345162318701  0.4578949049907894  1.0000
  H   H1800     1.0  0.8866541576405103  0.6084053395663744  0.43690586260571485  1.0000
  C   C2341     1.0  0.5734138610576769  0.7522367454457514  0.5359020631007569  1.0000
  C   C2342     1.0  0.5678767808981608  0.7283380276675011  0.5213913090693587  1.0000
  H   H1801     1.0  0.5656536572231535  0.7440015485420122  0.5513811185555028  1.0000
  H   H1802     1.0  0.5957072040986053  0.766196489655516  0.5379411559875225  1.0000
  H   H1803     1.0  0.5732926313322266  0.7349517196134402  0.5052774272470153  1.0000
  H   H1804     1.0  0.545756240581886  0.7132264938839749  0.521063952821971  1.0000
  C   C2343     1.0  0.8144616978809545  0.7355119536770615  0.5025193743776698  1.0000
  C   C2344     1.0  0.8231966910745139  0.715121000260663  0.4956341852678951  1.0000
  H   H1805     1.0  0.8292444093753478  0.7504165413176029  0.5137443283184668  1.0000
  H   H1806     1.0  0.814551804118671  0.7485440903720931  0.4891926097643935  1.0000
  H   H1807     1.0  0.8085124801608838  0.7012257703414536  0.48397785533755006  1.0000
  H   H1808     1.0  0.821748008084815  0.7009598416687424  0.5080599553498103  1.0000
  C   C2345     1.0  0.5532958021643087  0.5967230232038816  0.6231379139232932  1.0000
  C   C2346     1.0  0.5825414418138493  0.6018669087226822  0.6189465301950589  1.0000
  H   H1809     1.0  0.540581408283428  0.5738293240387393  0.6242270618117979  1.0000
  H   H1810     1.0  0.5453057210114434  0.6019654519771086  0.6094057782560086  1.0000
  H   H1811     1.0  0.5819159067143005  0.5836491884798235  0.6117554006671647  1.0000
  H   H1812     1.0  0.5929419499389276  0.6035928210117615  0.6338580661741934  1.0000
  C   C2347     1.0  0.5621483860696715  0.7596340072752352  0.6733855681952066  1.0000
  C   C2348     1.0  0.5879471542020781  0.7708005423354125  0.659971610562766  1.0000
  H   H1813     1.0  0.5450092444595283  0.7594247029475784  0.6652536718815957  1.0000
  H   H1814     1.0  0.5646213145402144  0.7721865175303673  0.6870442781621426  1.0000
  H   H1815     1.0  0.5830917477448974  0.757100776322046  0.6466662617787577  1.0000
  H   H1816     1.0  0.6043386326468487  0.7696424844539363  0.6684308631237645  1.0000
  C   C2349     1.0  0.8152577979368887  0.5299522638074248  0.699306370120364  1.0000
  C   C2350     1.0  0.802060946256263  0.5016987962112943  0.6891797422806152  1.0000
  H   H1817     1.0  0.8050191280333986  0.5280809762718699  0.7137911192162222  1.0000
  H   H1818     1.0  0.8104351410693936  0.5440583201715669  0.6901403951935099  1.0000
  H   H1819     1.0  0.8147119961426361  0.5027214261696623  0.6758468588589763  1.0000
  H   H1820     1.0  0.8022224553281081  0.9863409830737003  0.699662790707473  1.0000
  C   C2351     1.0  0.6452562732206989  0.5149311330622939  0.7349392506187186  1.0000
  C   C2352     1.0  0.6571213869506968  0.5459406474246635  0.7375718679166351  1.0000
  H   H1821     1.0  0.6233775934862904  0.5070965817636779  0.7320878859218466  1.0000
  H   H1822     1.0  0.6462762399705342  0.5055990541546296  0.749732999536877  1.0000
  H   H1823     1.0  0.6613914814264139  0.556284804666211  0.72255631219534  1.0000
  H   H1824     1.0  0.6414667138078661  0.5500523589054553  0.7444081065595107  1.0000
  C   C2353     1.0  0.6123225709754191  0.6351111010055268  0.7516772508940253  1.0000
  C   C2354     1.0  0.6032485307392471  0.6250713538047432  0.7735275155561054  1.0000
  H   H1825     1.0  0.6164594030603195  0.6201096088085789  0.7436707901518432  1.0000
  H   H1826     1.0  0.6315996656911723  0.6543956731536474  0.7523824435577905  1.0000
  H   H1827     1.0  0.5911391866884486  0.6341470719078802  0.7789778441049007  1.0000
  H   H1828     1.0  0.5888501112221209  0.6028601714009952  0.7731450900334563  1.0000
  C   C2355     1.0  0.8876546993153034  0.6646945809820838  0.7696328940334468  1.0000
  C   C2356     1.0  0.8660925382286893  0.6674599209582772  0.7566610203051886  1.0000
  H   H1829     1.0  0.8800286557400768  0.6585934315647581  0.7855708601153716  1.0000
  H   H1830     1.0  0.9063144189834005  0.6852133643998699  0.7716536304951247  1.0000
  H   H1831     1.0  0.8673254931850605  0.6628426523045143  0.740433940528141  1.0000
  H   H1832     1.0  0.8723305184688388  0.6893965605509458  0.7562204661030968  1.0000
  C   C2357     1.0  0.878492128777463  0.8954647414652274  0.09392355539241508  1.0000
  C   C2358     1.0  0.8903051587410172  0.9257738856407379  0.08749375859501088  1.0000
  H   H1833     1.0  0.857488459492635  0.8878474482930305  0.0998820509757065  1.0000
  H   H1834     1.0  0.8905338218118968  0.894529967709933  0.10675362573687497  1.0000
  H   H1835     1.0  0.9121751607112483  0.9334343325337867  0.08321043977113166  1.0000
  H   H1836     1.0  0.8807257173206614  0.9274840750269189  0.07296541298957077  1.0000
  C   C2359     1.0  0.8489525863500242  0.6463468219710284  0.10000228556002742  1.0000
  C   C2360     1.0  0.8513052782359624  0.6235188085863256  0.08954432424745547  1.0000
  H   H1837     1.0  0.847701808380705  0.6432216135178787  0.11678602392784294  1.0000
  H   H1838     1.0  0.8289014347851286  0.6439514488405922  0.0950091849661114  1.0000
  H   H1839     1.0  0.8550756298167592  0.6273747842970939  0.0732681410332998  1.0000
  H   H1840     1.0  0.8312619590490521  0.6050162053995247  0.09070246170024607  1.0000
  C   C2361     1.0  0.5256791086165069  0.860504520541792  0.13220572694147364  1.0000
  C   C2362     1.0  0.9946088366705497  0.8507319536282657  0.13323215704426397  1.0000
  H   H1841     1.0  0.5379747660721296  0.8830631583677742  0.13213061856882538  1.0000
  H   H1842     1.0  0.528731203390743  0.8536435034824371  0.11716493113568374  1.0000
  H   H1843     1.0  0.9920484248242669  0.8686896874275785  0.1298304055351954  1.0000
  H   H1844     1.0  0.9878118000263719  0.8457473894532509  0.14947927591869817  1.0000
  C   C2363     1.0  0.5140384163357063  0.6957332921137614  0.18840881739249718  1.0000
  C   C2364     1.0  0.9867809062918225  0.6886498166160946  0.17668212116598453  1.0000
  H   H1845     1.0  0.5283778131749636  0.6933288375170087  0.1780970955997863  1.0000
  H   H1846     1.0  0.5090667114545538  0.6811510891888881  0.20081623104932528  1.0000
  H   H1847     1.0  0.9902233623708938  0.7054886505051852  0.16592831546909123  1.0000
  H   H1848     1.0  0.9719885359201588  0.687861730002737  0.18800803544476088  1.0000
  C   C2365     1.0  0.7516705607592702  0.9064488388919758  0.21076847285074599  1.0000
  C   C2366     1.0  0.7520570387522041  0.9151223894156935  0.18867651525835155  1.0000
  H   H1849     1.0  0.7666795863679431  0.9239796597153298  0.22006141305111962  1.0000
  H   H1850     1.0  0.757742321724392  0.8904836965737695  0.21211002158419917  1.0000
  H   H1851     1.0  0.7388923479454055  0.8974461512058356  0.17818581832104088  1.0000
  H   H1852     1.0  0.743992214610586  0.9296746439960826  0.18743286745869664  1.0000
  C   C2367     1.0  0.6114048535124037  0.9313138854001553  0.32400161070296957  1.0000
  C   C2368     1.0  0.6175225319597875  0.9332069762613757  0.30081132700952684  1.0000
  H   H1853     1.0  0.6012014650248383  0.943969775002285  0.32615849065071056  1.0000
  H   H1854     1.0  0.5952882430343233  0.9099385997573964  0.32807673707231855  1.0000
  H   H1855     1.0  0.6323022013407511  0.9545099171880305  0.29643943843460213  1.0000
  H   H1856     1.0  0.5984703496345429  0.9296826360519832  0.293084801749924  1.0000
  C   C2369     1.0  0.9587714058656553  0.8653230305886259  0.3946860849052519  1.0000
  C   C2370     1.0  0.9776791108199788  0.8533579762019313  0.4008645516491711  1.0000
  H   H1857     1.0  0.9474202517350803  0.8660778412810656  0.408321849340829  1.0000
  H   H1858     1.0  0.9717770584541375  0.8879147172415001  0.3913130917954868  1.0000
  H   H1859     1.0  0.9964924284268281  0.8699550941351997  0.40851153240006294  1.0000
  H   H1860     1.0  0.9836830257724859  0.8472944070365444  0.38704828236690364  1.0000
  C   C2371     1.0  0.8889705286045725  0.9413217541299022  0.2417174055476941  1.0000
  C   C2372     1.0  0.8681547037541776  0.9431429058980121  0.2561256695390224  1.0000
  H   H1861     1.0  0.9105086871476998  0.9533372321547535  0.24837007993969817  1.0000
  H   H1862     1.0  0.8843827234756025  0.9199618153322806  0.23975173836127767  1.0000
  H   H1863     1.0  0.8518782192824608  0.943794622565145  0.2473558874536327  1.0000
  H   H1864     1.0  0.878043838840457  0.9633213016998696  0.26412907087702314  1.0000
  C   C2373     1.0  0.954421755769763  0.8244202103060932  0.2651876247237159  1.0000
  C   C2374     1.0  0.9468437679135906  0.8076396859226199  0.24529690843968982  1.0000
  H   H1865     1.0  0.9658634911845705  0.8465822867668916  0.2620272602045436  1.0000
  H   H1866     1.0  0.9695288019017639  0.8205806056506237  0.27405377804081316  1.0000
  H   H1867     1.0  0.9340566251423755  0.7860294467180926  0.2489727825633932  1.0000
  H   H1868     1.0  0.9338846221113298  0.8121134782289542  0.2353048943839136  1.0000
  C   C2375     1.0  0.6867735110027003  0.7769551611351386  0.2901232985025292  1.0000
  C   C2376     1.0  0.6648551342474194  0.7812716348698082  0.3014920444398423  1.0000
  H   H1869     1.0  0.6838426873057877  0.7777394904892767  0.2736300505617181  1.0000
  H   H1870     1.0  0.6818496807218122  0.7556341534368292  0.29315669774818204  1.0000
  H   H1871     1.0  0.6456570385605853  0.7612641482843427  0.30389520642416934  1.0000
  H   H1872     1.0  0.6711933590735302  0.7888102778480782  0.3173183422691535  1.0000
  C   C2377     1.0  0.7934144750380128  0.698323215608253  0.3576183438459179  1.0000
  C   C2378     1.0  0.8102904882118943  0.6931511550198908  0.37410394327627616  1.0000
  H   H1873     1.0  0.7874615559813206  0.6829745267702563  0.3453333063563375  1.0000
  H   H1874     1.0  0.7740975708181175  0.6961816871334813  0.36375397893130035  1.0000
  H   H1875     1.0  0.8171452590879081  0.7091315769688269  0.3862987283425114  1.0000
  H   H1876     1.0  0.8298934478481088  0.6969016112055904  0.36738243229019524  1.0000
  C   C2379     1.0  0.7585553313273004  0.8990579070983151  0.3790081681787285  1.0000
  C   C2380     1.0  0.7300058978720005  0.8924984443960872  0.3701389554574501  1.0000
  H   H1877     1.0  0.756121926851346  0.8900267799470949  0.3945224067815581  1.0000
  H   H1878     1.0  0.7717409644864185  0.9214740929084314  0.38190389423622767  1.0000
  H   H1879     1.0  0.7299809416310608  0.8919392764485337  0.35329540573789225  1.0000
  H   H1880     1.0  0.7137356193300509  0.8713614555272569  0.37397391859857554  1.0000
  C   C2381     1.0  0.9478938902210489  0.5068949513917334  0.7963093687913588  1.0000
  C   C2382     1.0  0.969535166463598  0.535593798199687  0.7884237545143342  1.0000
  H   H1881     1.0  0.9580789871421238  0.994852693679007  0.7998995795979889  1.0000
  H   H1882     1.0  0.9347889373561358  0.9952174922300487  0.7835516533557841  1.0000
  H   H1883     1.0  0.9817942110140712  0.5478953311925797  0.8018698358906772  1.0000
  H   H1884     1.0  0.984447580848397  0.5328980623078706  0.7791017499742391  1.0000
  C   C2383     1.0  0.8013889657610096  0.5418199322682874  0.8291092410179286  1.0000
  C   C2384     1.0  0.7839122911621096  0.5131807685135453  0.8378958498263149  1.0000
  H   H1885     1.0  0.8141487012542233  0.541415159883873  0.8164769611537829  1.0000
  H   H1886     1.0  0.8165007669592732  0.5552987455835249  0.8411740014064634  1.0000
  H   H1887     1.0  0.7708212829849458  0.5141060233336582  0.8500967537009124  1.0000
  H   H1888     1.0  0.7699307409966906  0.9983200374437244  0.8256857677391737  1.0000
  C   C2385     1.0  0.7557111022974208  0.7817113531107592  0.8593912236033767  1.0000
  C   C2386     1.0  0.7719073799215775  0.7720471177786961  0.8461975430719822  1.0000
  H   H1889     1.0  0.7398529133593387  0.7820368016208703  0.8495445312462071  1.0000
  H   H1890     1.0  0.7443030011343921  0.7666295535641814  0.871794048153933  1.0000
  H   H1891     1.0  0.7897881153196307  0.7742028333016192  0.8549107261800198  1.0000
  H   H1892     1.0  0.7810868197763883  0.7853469008429326  0.8330910555597513  1.0000
  C   C2387     1.0  0.9143240730643535  0.872304872790029  0.9590130722534727  1.0000
  C   C2388     1.0  0.9118438536810063  0.8980507981471464  0.9549287676715801  1.0000
  H   H1893     1.0  0.9362983125425004  0.8788604619719825  0.9578382610478946  1.0000
  H   H1894     1.0  0.9033100679752559  0.8567245787096973  0.9468886534834049  1.0000
  H   H1895     1.0  0.9302637407062552  0.9127786900221242  0.9458224511262592  1.0000
  H   H1896     1.0  0.9133700640438305  0.9088891433648031  0.9695726057848603  1.0000
  C   C2389     1.0  0.9885503186616853  0.5572899758034622  0.07383657833016546  1.0000
  C   C2390     1.0  0.516989560812364  0.5813019259696591  0.06743967012770909  1.0000
  H   H1897     1.0  0.9921927652257942  0.5413681862597223  0.08077438919185675  1.0000
  H   H1898     1.0  0.9764335323802399  0.5470452989051751  0.060114844637096876  1.0000
  H   H1899     1.0  0.5275781035602406  0.595087526666925  0.08062998531450444  1.0000
  H   H1900     1.0  0.5294915078832051  0.5714995134897899  0.06435028378554042  1.0000
  C   C2391     1.0  0.6179594869894014  0.6183295449831947  0.9134310093578787  1.0000
  C   C2392     1.0  0.6434312529876187  0.614952163843259  0.9105719961505538  1.0000
  H   H1901     1.0  0.6015576112506213  0.5990395179856907  0.9203192578718347  1.0000
  H   H1902     1.0  0.609469180227358  0.6202402655033687  0.898898839497212  1.0000
  H   H1903     1.0  0.6371671110091213  0.5929008404184029  0.9131311877481217  1.0000
  H   H1904     1.0  0.6586827698531941  0.6252885258548747  0.9232302809502397  1.0000
  C   C2393     1.0  0.9543702845240555  0.5863853338918523  0.9180415314589365  1.0000
  C   C2394     1.0  0.9476817367560838  0.5807967344184063  0.9411507409415776  1.0000
  H   H1905     1.0  0.9567686644424  0.6066999651386147  0.9143289444850589  1.0000
  H   H1906     1.0  0.9743910710902913  0.5882091090075544  0.9149943648944685  1.0000
  H   H1907     1.0  0.9421822902798849  0.5596118053334368  0.944800610129741  1.0000
  H   H1908     1.0  0.9285549040745614  0.581369251785691  0.9434667099067406  1.0000
  C   C2395     1.0  0.6872411741538267  0.8285448403994382  0.9299502622342302  1.0000
  C   C2396     1.0  0.7114114752194373  0.852413276139328  0.9415193991454113  1.0000
  H   H1909     1.0  0.6935141293802903  0.8281391455539528  0.9141622069571839  1.0000
  H   H1910     1.0  0.6702566468572603  0.8329364589293841  0.9285750600547839  1.0000
  H   H1911     1.0  0.7133821757499341  0.8491956157706857  0.9578765036001595  1.0000
  H   H1912     1.0  0.7081124105510743  0.8706506039066549  0.9414260873178849  1.0000
  C   C2397     1.0  0.5247811063858632  0.7695698165181716  0.03449080491751517  1.0000
  C   C2398     1.0  0.5213806542722909  0.7563870720436572  0.013288996268659745  1.0000
  H   H1913     1.0  0.5365903796891454  0.7644021649690483  0.04558787576353832  1.0000
  H   H1914     1.0  0.5386922224480407  0.7919349502443069  0.03256980503214411  1.0000
  H   H1915     1.0  0.5375676716870905  0.7711678369234588  0.0024000126490608684  1.0000
  H   H1916     1.0  0.501857139264765  0.7538794847965488  0.006573039952208148  1.0000
  C   C2399     1.0  0.7454672188419048  0.7558047884856314  0.013109944638955425  1.0000
  C   C2400     1.0  0.7513354573106834  0.7340394609220542  0.022925645231769508  1.0000
  H   H1917     1.0  0.7467127612788669  0.7702516607536529  0.02512000288073017  1.0000
  H   H1918     1.0  0.7616965463908992  0.7692648004910073  0.0019701663616031873  1.0000
  H   H1919     1.0  0.7447539823534477  0.7162855205048859  0.012812876492961587  1.0000
  H   H1920     1.0  0.7387042026464073  0.7256688218264999  0.036950718849403374  1.0000
