data_image0
_chemical_formula_structural       C6H4C38H24C6H4C38H24C6H4C38H24C6H4C38H24C6H4C38H24C6H4C38H24C6H4C38H24C6H4C38H24C6H4C38H24C6H4C38H24C6H4C38H24C6H4C38H24C6H4C38H24C6H4C38H24C6H4C38H24C6H4C38H24C6H4C38H24C6H4C38H24C6H4C38H24C6H4C38H24C6H4C38H24C6H4C38H24C6H4C38H24C6H4C38H24C2H4C2H4C2H4C2H4C2H4C2H4C2H4C2H4C2H4C2H4C2H4C2H4C2H4C2H4C2H4C2H4C2H4C2H4C2H4C2H4C2H4C2H4C2H4C2H4C2H4C2H4C2H4C2H4C2H4C2H4C2H4C2H4C2H4C2H4C2H4C2H4C2H4C2H4C2H4C2H4C2H4C2H4C2H4C2H4C2H4C2H4C2H4C2H4C2H4C2H4C2H4C2H4C2H4C2H4C2H4C2H4C2H4C2H4C2H4C2H4C2H4C2H4C2H4C2H4C2H4C2H4C2H4C2H4C2H4C2H4C2H4C2H4C6H4C38H24C6H4C38H24C6H4C38H24C6H4C38H24C6H4C38H24C6H4C38H24C6H4C38H24C6H4C38H24C6H4C38H24C6H4C38H24C6H4C38H24C6H4C38H24C6H4C38H24C6H4C38H24C6H4C38H24C6H4C38H24C6H4C38H24C6H4C38H24C6H4C38H24C6H4C38H24C6H4C38H24C6H4C38H24C6H4C38H24C6H4C38H24C2H4C2H4C2H4C2H4C2H4C2H4C2H4C2H4C2H4C2H4C2H4C2H4C2H4C2H4C2H4C2H4C2H4C2H4C2H4C2H4C2H4C2H4C2H4C2H4C2H4C2H4C2H4C2H4C2H4C2H4C2H4C2H4C2H4C2H4C2H4C2H4C2H4C2H4C2H4C2H4C2H4C2H4C2H4C2H4C2H4C2H4C2H4C2H4C2H4C2H4C2H4C2H4C2H4C2H4C2H4C2H4C2H4C2H4C2H4C2H4C2H4C2H4C2H4C2H4C2H4C2H4C2H4C2H4C2H4C2H4C2H4C2H4
_chemical_formula_sum              "C2400 H1920"
_cell_length_a       58.26590093527477
_cell_length_b       58.23602112532146
_cell_length_c       51.55317528098317
_cell_angle_alpha    90.28130000085694
_cell_angle_beta     89.14469999944482
_cell_angle_gamma    120.55539999973442

_space_group_name_H-M_alt    "P 1"
_space_group_IT_number       1

loop_
  _space_group_symop_operation_xyz
  'x, y, z'

loop_
  _atom_site_type_symbol
  _atom_site_label
  _atom_site_symmetry_multiplicity
  _atom_site_fract_x
  _atom_site_fract_y
  _atom_site_fract_z
  _atom_site_occupancy
  C   C1        1.0  0.5315788163347478  0.2411216635704775  0.3038323228829947  1.0000
  C   C2        1.0  0.5553730885367795  0.24831041854061991  0.2919189654899628  1.0000
  C   C3        1.0  0.5590031637784711  0.23034218936083994  0.27753602595048427  1.0000
  C   C4        1.0  0.5385639231087732  0.20428943729300894  0.27520418169280236  1.0000
  C   C5        1.0  0.5145478847584356  0.19677928145449547  0.28816512302855324  1.0000
  C   C6        1.0  0.5105823696658555  0.21486890492607186  0.3016886557409494  1.0000
  H   H1        1.0  0.5720308826975784  0.26932625322657444  0.2936125595306919  1.0000
  H   H2        1.0  0.577702416339298  0.23775665148765868  0.26737446170611023  1.0000
  H   H3        1.0  0.4979424904819887  0.17711422524467238  0.286779984259847  1.0000
  H   H4        1.0  0.49148038074788364  0.2088694026134487  0.3102342247551662  1.0000
  C   C7        1.0  0.5189599713938966  0.14392201915977457  0.2851232496541396  1.0000
  C   C8        1.0  0.5232536569556817  0.1540858363530025  0.25982215746721216  1.0000
  C   C9        1.0  0.5121165767213711  0.13603950743032564  0.23999372139585917  1.0000
  C   C10       1.0  0.4966410537532793  0.10956621082523332  0.24433343487708573  1.0000
  C   C11       1.0  0.490347098043975  0.10038139138099754  0.2692853324164402  1.0000
  C   C12       1.0  0.5021318104995577  0.11741653588255573  0.28980051796135337  1.0000
  C   C13       1.0  0.5411310574743996  0.18554064454537308  0.254615277277846  1.0000
  C   C14       1.0  0.5691054886423256  0.1877327880410964  0.25103409216995853  1.0000
  C   C15       1.0  0.5755806358544674  0.180311869018709  0.22779906831450458  1.0000
  C   C16       1.0  0.5992982769132538  0.1805062398994178  0.22432264160088908  1.0000
  C   C17       1.0  0.6169099057134152  0.1878522358368154  0.24423643636387102  1.0000
  C   C18       1.0  0.6115226348395529  0.19608515775228563  0.26715136512571636  1.0000
  C   C19       1.0  0.5876053514085207  0.19550866354707347  0.27052303344506  1.0000
  C   C20       1.0  0.5049222223569798  0.1845769477805207  0.22629947130020509  1.0000
  C   C21       1.0  0.49658059108452707  0.1888279309036812  0.20301982812867236  1.0000
  C   C22       1.0  0.5151108342563705  0.20437626182529295  0.18383332821777434  1.0000
  C   C23       1.0  0.541630972426673  0.2176795774106947  0.19037199799357865  1.0000
  C   C24       1.0  0.5500585300373911  0.21411039792693984  0.2140136396164287  1.0000
  C   C25       1.0  0.531788970223728  0.1952626733979314  0.23103105877481905  1.0000
  C   C26       1.0  0.505443810175746  0.20221428555028675  0.15466218935060608  1.0000
  C   C27       1.0  0.4742747022221629  0.11561453693512744  0.1499395257392078  1.0000
  C   C28       1.0  0.45741318151161187  0.12580669661535676  0.1501940498378832  1.0000
  C   C29       1.0  0.4668909627513868  0.1523670546405731  0.15136579187751703  1.0000
  C   C30       1.0  0.49438552912919415  0.17093328798194  0.15041365447180136  1.0000
  C   C31       1.0  0.5110896214932064  0.15999215027198416  0.15184690450306204  1.0000
  C   C32       1.0  0.5009034089319048  0.1327161513603987  0.15079272466144447  1.0000
  C   C33       1.0  0.5290310308700801  0.22228360194723695  0.13495170347132218  1.0000
  C   C34       1.0  0.5418426800013586  0.24935407036282045  0.1389189426618042  1.0000
  C   C35       1.0  0.5636115558074429  0.2669099791846344  0.12510383241868459  1.0000
  C   C36       1.0  0.5723374718306773  0.2575445127256948  0.10497140300691667  1.0000
  C   C37       1.0  0.5594888940633391  0.23090060482149677  0.09980894813660286  1.0000
  C   C38       1.0  0.538440499678433  0.21310009515095055  0.11528603090514351  1.0000
  C   C39       1.0  0.4689672424667882  0.20505514560566673  0.13055088092677036  1.0000
  C   C40       1.0  0.44785626905597337  0.20882432009351293  0.1291711740748042  1.0000
  C   C41       1.0  0.4402840646322752  0.2188397598671191  0.1493305690732458  1.0000
  C   C42       1.0  0.45472378812382086  0.22593595543387346  0.17134748559974927  1.0000
  C   C43       1.0  0.4764968014795407  0.22291638408036984  0.17340036213342555  1.0000
  C   C44       1.0  0.4824843380036688  0.20967918549018646  0.15304638811747523  1.0000
  H   H5        1.0  0.5285054179538308  0.15620798289309046  0.30157225752509176  1.0000
  H   H6        1.0  0.5146447392576209  0.14311308544681298  0.22038644193463577  1.0000
  H   H7        1.0  0.48929480936306696  0.09686361259188384  0.22765939045547545  1.0000
  H   H8        1.0  0.4979292589439418  0.11087271147187275  0.3101139465987799  1.0000
  H   H9        1.0  0.5624904825488138  0.1750160909011263  0.21145869877835297  1.0000
  H   H10       1.0  0.6032367592733864  0.17492926175633475  0.2056252081936197  1.0000
  H   H11       1.0  0.6255398769610203  0.2018927771112608  0.282628447894257  1.0000
  H   H12       1.0  0.584063044434803  0.20240184890640134  0.2886792151485912  1.0000
  H   H13       1.0  0.49046077025503976  0.17178472762383468  0.24057959241567606  1.0000
  H   H14       1.0  0.4753239049239946  0.17919120260322877  0.19943282310999205  1.0000
  H   H15       1.0  0.5570456521804685  0.23116828719521407  0.1769745633483616  1.0000
  H   H16       1.0  0.571660192219453  0.22399572138733329  0.21624848536089583  1.0000
  H   H17       1.0  0.4359312884448488  0.11322754070439978  0.14947858880441145  1.0000
  H   H18       1.0  0.4516539643163266  0.15777974978135065  0.1527212491011795  1.0000
  H   H19       1.0  0.5323871273155284  0.17344479924011055  0.15321691150370675  1.0000
  H   H20       1.0  0.5151207546914041  0.12588560699785709  0.15208144690801523  1.0000
  H   H21       1.0  0.5350717188893233  0.2573871572673542  0.15417448082616245  1.0000
  H   H22       1.0  0.5728043312704522  0.28754331912782605  0.12917815796775564  1.0000
  H   H23       1.0  0.5660977266678909  0.22402714966387563  0.08296554431091967  1.0000
  H   H24       1.0  0.528767140277287  0.19228462520377518  0.11148407718117936  1.0000
  H   H25       1.0  0.47372541325495937  0.1966397865376246  0.11355363745912862  1.0000
  H   H26       1.0  0.43769570079196923  0.2042321305380419  0.1110572837230346  1.0000
  H   H27       1.0  0.44854168059377736  0.2338619470018356  0.18766767944515228  1.0000
  H   H28       1.0  0.4884307657345915  0.22942210247874528  0.19050391597155064  1.0000
  C   C45       1.0  0.5806528517809724  0.2660036150400661  0.04250998641040371  1.0000
  C   C46       1.0  0.6006965865376056  0.2650743895613685  0.029415963114522284  1.0000
  C   C47       1.0  0.595070688371855  0.2459709645094577  0.010908628834306653  1.0000
  C   C48       1.0  0.5689448762982187  0.22696643017067444  0.005067378368516229  1.0000
  C   C49       1.0  0.5493777462369223  0.22796131535634265  0.02007692830336194  1.0000
  C   C50       1.0  0.5547596679364297  0.24726592515922274  0.03802768511475152  1.0000
  H   H29       1.0  0.6211405647060552  0.2794754624285558  0.03313818406062394  1.0000
  H   H30       1.0  0.6111610811535012  0.24725863123887437  0.49921448808114005  1.0000
  H   H31       1.0  0.5286085691820719  0.21372986248925627  0.016315325960895133  1.0000
  H   H32       1.0  0.5395389051237449  0.25011928555526963  0.04741849917312138  1.0000
  C   C51       1.0  0.5412353589363601  0.1687162677405905  0.019483297402487883  1.0000
  C   C52       1.0  0.5500670456937601  0.17542677537143309  0.4942501041748107  1.0000
  C   C53       1.0  0.5479119845947286  0.15502025425688254  0.478423826758697  1.0000
  C   C54       1.0  0.5339635318847915  0.12882435723352575  0.4860595497189597  1.0000
  C   C55       1.0  0.5246402854497951  0.12245330748915609  0.011021147109635752  1.0000
  C   C56       1.0  0.5293755889875961  0.1425829798680262  0.02793518381178638  1.0000
  C   C57       1.0  0.5607854593718368  0.20567363548776343  0.48210783029059207  1.0000
  C   C58       1.0  0.5863630853992272  0.21279110704706888  0.4638022708767102  1.0000
  C   C59       1.0  0.5914368355602643  0.22644280473907766  0.44059246663469215  1.0000
  C   C60       1.0  0.612166498689955  0.23082534626493798  0.42449847332210583  1.0000
  C   C61       1.0  0.6291490504494953  0.22173700320516346  0.43181604115902433  1.0000
  C   C62       1.0  0.6249883184412894  0.20893102990868284  0.4549482465904706  1.0000
  C   C63       1.0  0.6045023424705936  0.20570096109949093  0.471069399486757  1.0000
  C   C64       1.0  0.5198649899205499  0.1821209213188569  0.4505018347447079  1.0000
  C   C65       1.0  0.4972674451172987  0.18004498364287932  0.44050516797279893  1.0000
  C   C66       1.0  0.49126790925254976  0.2003394335864146  0.4434888422392837  1.0000
  C   C67       1.0  0.5108086328143497  0.22422375152756377  0.4542091179197745  1.0000
  C   C68       1.0  0.5332470826805946  0.22592074111862084  0.4647916557115004  1.0000
  C   C69       1.0  0.5369636240352295  0.20437327503291505  0.4653484271773528  1.0000
  C   C70       1.0  0.46330380341268784  0.19603489714016792  0.4320740572041754  1.0000
  C   C71       1.0  0.40087075006514455  0.11172807984618978  0.4289177255841685  1.0000
  C   C72       1.0  0.4166577295993289  0.12211325494716528  0.4502496386103496  1.0000
  C   C73       1.0  0.43564020645613805  0.14836405535063835  0.4509480279054956  1.0000
  C   C74       1.0  0.44008520858032724  0.16536401558949002  0.43002738857534484  1.0000
  C   C75       1.0  0.42213321095918027  0.15520685385953603  0.40960144166258927  1.0000
  C   C76       1.0  0.4034858549493478  0.128678496273119  0.40858683721436323  1.0000
  C   C77       1.0  0.4750545899972121  0.2124704031959543  0.4057098613124146  1.0000
  C   C78       1.0  0.4844117080552037  0.2394446173254225  0.40361081348644806  1.0000
  C   C79       1.0  0.502648910929304  0.2549904979529794  0.38481638156596404  1.0000
  C   C80       1.0  0.5111412673614928  0.24377675717850342  0.3664894824791749  1.0000
  C   C81       1.0  0.5003238396875064  0.21679815657539908  0.3668425570672766  1.0000
  C   C82       1.0  0.48276951497743464  0.20125289887105716  0.3860657224161697  1.0000
  C   C83       1.0  0.43169722709782576  0.2142236997639189  0.4398378182018816  1.0000
  C   C84       1.0  0.41746777834298876  0.22207709157911512  0.4551655232600716  1.0000
  C   C85       1.0  0.42055129335418556  0.22358528004507416  0.48113784515844493  1.0000
  C   C86       1.0  0.43727613921991243  0.2162774194714992  0.49225969468364467  1.0000
  C   C87       1.0  0.45097393020113624  0.2079293673326838  0.47697466897126917  1.0000
  C   C88       1.0  0.44878294636485244  0.20690387860338671  0.45033499730197857  1.0000
  H   H33       1.0  0.5447542255157265  0.18367836811181262  0.03365305216876767  1.0000
  H   H34       1.0  0.5552240736104482  0.15859234751866277  0.45842273333382183  1.0000
  H   H35       1.0  0.5288999686657347  0.113535411971696  0.47214996292396894  1.0000
  H   H36       1.0  0.5224913905144992  0.13837926697746986  0.04815607586760611  1.0000
  H   H37       1.0  0.5801235848683975  0.2352442544067204  0.4350674313219817  1.0000
  H   H38       1.0  0.6155638497098173  0.24192831118261246  0.40638303099412476  1.0000
  H   H39       1.0  0.637522392108611  0.20124281604420508  0.46154608545933584  1.0000
  H   H40       1.0  0.6016721705449384  0.19497265728395763  0.48950299693808236  1.0000
  H   H41       1.0  0.5224394492394646  0.1654633611098  0.44678679168858404  1.0000
  H   H42       1.0  0.4843581993135709  0.16241099496323436  0.4297266931843792  1.0000
  H   H43       1.0  0.5066858644969561  0.2400840372510267  0.4549482465904706  1.0000
  H   H44       1.0  0.5470313826862453  0.24466924703071088  0.4733740841607387  1.0000
  H   H45       1.0  0.41484558746824785  0.10929698518662721  0.46656284856280117  1.0000
  H   H46       1.0  0.4478668265573711  0.15536521196937908  0.4682021234361299  1.0000
  H   H47       1.0  0.423229821908725  0.16772068775369275  0.39320675295903723  1.0000
  H   H48       1.0  0.39123236420876706  0.12179284018777012  0.39144331998879367  1.0000
  H   H49       1.0  0.48063650318893947  0.24913391537045493  0.4197533060556417  1.0000
  H   H50       1.0  0.511494355022848  0.2765303986344397  0.386001703397448  1.0000
  H   H51       1.0  0.5080143353089812  0.20709349446780526  0.3548807004176373  1.0000
  H   H52       1.0  0.4765975298746734  0.1805835564292204  0.38670203266285813  1.0000
  H   H53       1.0  0.42865206538432277  0.2124261276395568  0.41893075866358087  1.0000
  H   H54       1.0  0.40510066095616926  0.2282800711116289  0.44597006420731616  1.0000
  H   H55       1.0  0.43985304191635227  0.21802089543134026  0.012623562547942835  1.0000
  H   H56       1.0  0.46284648754651936  0.20094045011567532  0.48688209711102054  1.0000
  C   C89       1.0  0.7928067440990673  0.241125241643756  0.1393529140099269  1.0000
  C   C90       1.0  0.7805481273425472  0.244028500228257  0.16119930715019887  1.0000
  C   C91       1.0  0.7637389345972733  0.22212355478914703  0.17626725018999986  1.0000
  C   C92       1.0  0.7584591032798343  0.19627878360759382  0.16988203206210128  1.0000
  C   C93       1.0  0.7723486165295098  0.1944948775769389  0.14844283868030467  1.0000
  C   C94       1.0  0.7893197175183144  0.21634991775073345  0.1341400199127414  1.0000
  H   H57       1.0  0.7828146810270468  0.2630824539021502  0.1659285666604957  1.0000
  H   H58       1.0  0.7541639440459516  0.22477291334681107  0.19333064664365399  1.0000
  H   H59       1.0  0.7700267293310074  0.17564089384011083  0.14260158821451427  1.0000
  H   H60       1.0  0.7981305275306633  0.21295853396421469  0.117151506311289  1.0000
  C   C95       1.0  0.7133802172837609  0.14186591267043688  0.14927333995044909  1.0000
  C   C96       1.0  0.7239204375810835  0.14337043175851044  0.17371192135787125  1.0000
  C   C97       1.0  0.7188208436995109  0.1198575932134416  0.185566497651895  1.0000
  C   C98       1.0  0.7048789145379383  0.09602836314234624  0.17252291358288524  1.0000
  C   C99       1.0  0.6951384594541535  0.09457805733519781  0.14809209205652024  1.0000
  C   C100      1.0  0.6998763041097283  0.11813451203804716  0.13606718637329146  1.0000
  C   C101      1.0  0.7399942214346295  0.17164586378416793  0.18872767919756273  1.0000
  C   C102      1.0  0.7155094881281279  0.17264592843765453  0.201244755336843  1.0000
  C   C103      1.0  0.7048439268460591  0.16104921729313043  0.22504043059867798  1.0000
  C   C104      1.0  0.6812793497430282  0.15810112542587282  0.23404771253579687  1.0000
  C   C105      1.0  0.6680107417424758  0.1677625115227363  0.22032242291591403  1.0000
  C   C106      1.0  0.6785835971616953  0.1800460125357233  0.19670134497786554  1.0000
  C   C107      1.0  0.7015391713645047  0.18192481622685855  0.1874696084811678  1.0000
  C   C108      1.0  0.7792141856715344  0.16402830796381238  0.19898275000867569  1.0000
  C   C109      1.0  0.8011124139652703  0.16949920754642378  0.2126905798961799  1.0000
  C   C110      1.0  0.8080891321332376  0.18506427324994057  0.23466074313931384  1.0000
  C   C111      1.0  0.7905242559585655  0.19272706315116173  0.24361952581982535  1.0000
  C   C112      1.0  0.7694430365101783  0.18868588086193955  0.22929284541801132  1.0000
  C   C113      1.0  0.7626558857416813  0.1735799026281027  0.20699288722994724  1.0000
  C   C114      1.0  0.8327500339464508  0.1886629154057544  0.2517499411974832  1.0000
  C   C115      1.0  0.7889833933835819  0.10280610853807473  0.26431124865878936  1.0000
  C   C116      1.0  0.8112851913620023  0.11332424071218553  0.24905726247064258  1.0000
  C   C117      1.0  0.8269622781590998  0.14041980091830827  0.24754796560502154  1.0000
  C   C118      1.0  0.8202586839777951  0.15744469270858277  0.25992109595069113  1.0000
  C   C119      1.0  0.7981653127660275  0.14621681408497317  0.2758812313150411  1.0000
  C   C120      1.0  0.7825015639885553  0.11935833809750489  0.27770480336347786  1.0000
  C   C121      1.0  0.8407240848007834  0.20867729149067923  0.27490736624236534  1.0000
  C   C122      1.0  0.8448915812689645  0.23399704281848208  0.27137468039108525  1.0000
  C   C123      1.0  0.8493373027881284  0.25019694277698434  0.2918704662333555  1.0000
  C   C124      1.0  0.8508759588731307  0.24292340837306908  0.31657598754914457  1.0000
  C   C125      1.0  0.8482996058548903  0.21819291490588935  0.32041518870218316  1.0000
  C   C126      1.0  0.8438531538013799  0.2017703082265951  0.2997234658632192  1.0000
  C   C127      1.0  0.8804478511171012  0.1978818881816916  0.24405213918876303  1.0000
  C   C128      1.0  0.9036995995415626  0.20706283830569366  0.2297875378354064  1.0000
  C   C129      1.0  0.9067476978841832  0.21969114031740533  0.20609468099757897  1.0000
  C   C130      1.0  0.8862107445348348  0.22282998450866087  0.1972988558192682  1.0000
  C   C131      1.0  0.8638611414811211  0.21530116822055226  0.2126653602827441  1.0000
  C   C132      1.0  0.8603214918688277  0.20104058860418478  0.23546971073952466  1.0000
  H   H61       1.0  0.7172332212415249  0.1595692696177092  0.13942120096323005  1.0000
  H   H62       1.0  0.7262880291763462  0.12048092692313271  0.2050218774414242  1.0000
  H   H63       1.0  0.7008855331320201  0.07780089303616618  0.18258631533188596  1.0000
  H   H64       1.0  0.6922842827625751  0.1175787945610081  0.11722968711294007  1.0000
  H   H65       1.0  0.7134786681336397  0.15226857419985632  0.23677919066792336  1.0000
  H   H66       1.0  0.6737324437972647  0.14848704583611336  0.2524968297492365  1.0000
  H   H67       1.0  0.6675871632807154  0.18664823707384598  0.18549918068372398  1.0000
  H   H68       1.0  0.7074336493530163  0.18943006179613872  0.16856188229724897  1.0000
  H   H69       1.0  0.7748607824699627  0.1525706585615744  0.18097904996791808  1.0000
  H   H70       1.0  0.8132490190930112  0.16169087023591522  0.20590844385220672  1.0000
  H   H71       1.0  0.7938850127585145  0.20481909279322238  0.26047786741654366  1.0000
  H   H72       1.0  0.7581657765834373  0.1986739517755639  0.2353765921668385  1.0000
  H   H73       1.0  0.8172404804755622  0.10093436610019942  0.23866290179455318  1.0000
  H   H74       1.0  0.8439955547506138  0.14730607506663237  0.23456956453689207  1.0000
  H   H75       1.0  0.7915322763796806  0.15811741513053523  0.2856315218633847  1.0000
  H   H76       1.0  0.7645449830160962  0.11106579717442368  0.2892068870604793  1.0000
  H   H77       1.0  0.8434742817406966  0.24112574776481357  0.2520506365884488  1.0000
  H   H78       1.0  0.8520040510774394  0.2695482450397069  0.28904392955827857  1.0000
  H   H79       1.0  0.8492686020298422  0.21132167787285466  0.33966551363477643  1.0000
  H   H80       1.0  0.8416837814157531  0.18247767592192513  0.3035335674622934  1.0000
  H   H81       1.0  0.8784399800640353  0.18714763694324132  0.2618513663636641  1.0000
  H   H82       1.0  0.9186065792006429  0.20386400886954148  0.23801107178575032  1.0000
  H   H83       1.0  0.8881427257742407  0.2324053599583782  0.17860646633468602  1.0000
  H   H84       1.0  0.8494189727401319  0.22015632791752104  0.2052915333081611  1.0000
  C   C133      1.0  0.8286289556644503  0.24262495127871198  0.3793476053909182  1.0000
  C   C134      1.0  0.819956827016756  0.2581901977496564  0.390661511972283  1.0000
  C   C135      1.0  0.7951697096606507  0.24647555008390593  0.4023886322199427  1.0000
  C   C136      1.0  0.7781514171364318  0.21860379602892374  0.4026854476703797  1.0000
  C   C137      1.0  0.7876478047454606  0.2036829160593881  0.3906576320317544  1.0000
  C   C138      1.0  0.8122444362760892  0.215307970575201  0.3795105628931189  1.0000
  H   H85       1.0  0.8314465924532252  0.2796224272534657  0.3905974929535614  1.0000
  H   H86       1.0  0.7896018676386549  0.2591989782652395  0.4131729269191552  1.0000
  H   H87       1.0  0.7761872633214439  0.18194023607886728  0.3918992130009029  1.0000
  H   H88       1.0  0.818648308749785  0.20304307541027322  0.37062743905291484  1.0000
  C   C139      1.0  0.723458893719335  0.17016500132112466  0.3854720915152956  1.0000
  C   C140      1.0  0.7280432841218074  0.17655541967902189  0.4116927296074985  1.0000
  C   C141      1.0  0.7106402253540671  0.1578753588633126  0.42971893330332206  1.0000
  C   C142      1.0  0.6908999042190608  0.13304126022293336  0.4218717535842513  1.0000
  C   C143      1.0  0.6877843162818302  0.12648126966036508  0.3962990655603225  1.0000
  C   C144      1.0  0.7032581261884153  0.1454628916604512  0.3781913831133988  1.0000
  C   C145      1.0  0.7519228906917022  0.20493167620624564  0.42043423561840904  1.0000
  C   C146      1.0  0.7362880744409497  0.22035603611086663  0.42280293931111257  1.0000
  C   C147      1.0  0.7209010546496275  0.21684317009706108  0.44442390790667347  1.0000
  C   C148      1.0  0.7043832932223241  0.2272776073833295  0.4464240172491611  1.0000
  C   C149      1.0  0.7006496436865788  0.2390751025930719  0.4250028655908223  1.0000
  C   C150      1.0  0.7159871545782562  0.2430257259702649  0.40305016208006705  1.0000
  C   C151      1.0  0.7337580784727104  0.23411360827228292  0.40202779775078396  1.0000
  C   C152      1.0  0.7676639027064768  0.18045084976266676  0.45002072211916283  1.0000
  C   C153      1.0  0.7790459350121214  0.1776038228371159  0.4717580889305815  1.0000
  C   C154      1.0  0.7888077368894629  0.19684162106080352  0.4912043508598685  1.0000
  C   C155      1.0  0.7887470965563781  0.22016638925898196  0.48584421301962305  1.0000
  C   C156      1.0  0.7772920385511715  0.2231086101940341  0.4643318827588625  1.0000
  C   C157      1.0  0.7653589487689144  0.20293855886007328  0.44633089867647496  1.0000
  C   C158      1.0  0.799988387637741  0.19088020782127893  0.017269791330927875  1.0000
  C   C159      1.0  0.749307404594054  0.10548099253250681  0.03514857524551221  1.0000
  C   C160      1.0  0.7762536127859708  0.11780466899076518  0.03918177342498024  1.0000
  C   C161      1.0  0.792276862050204  0.14468461453933476  0.033575453358195895  1.0000
  C   C162      1.0  0.7821658039653069  0.16009320681432793  0.02566076267392763  1.0000
  C   C163      1.0  0.7547883119344844  0.14675734635388077  0.023433076860591262  1.0000
  C   C164      1.0  0.7382138898051767  0.12002294439840876  0.027865926873351068  1.0000
  C   C165      1.0  0.7982723940093225  0.20892381814306374  0.04007260777034424  1.0000
  C   C166      1.0  0.8194833856011569  0.23437893353116712  0.04284734723936451  1.0000
  C   C167      1.0  0.8185880031860024  0.2524736737667928  0.05944728479687875  1.0000
  C   C168      1.0  0.7966553348986317  0.24538283139128525  0.07503785582588063  1.0000
  C   C169      1.0  0.7753727246174423  0.21988023860064088  0.07339140306257398  1.0000
  C   C170      1.0  0.7765016840894624  0.2018769068821837  0.05626728553964739  1.0000
  C   C171      1.0  0.8471773271657371  0.20195624106037735  0.03270751066195058  1.0000
  C   C172      1.0  0.8727833957069183  0.2068768253722104  0.02856974808523707  1.0000
  C   C173      1.0  0.8821506833662828  0.20724963506246533  0.003711339153774418  1.0000
  C   C174      1.0  0.8661402963336365  0.203597198997029  0.4823057072575501  1.0000
  C   C175      1.0  0.8410120779056568  0.19941470581824774  0.48697521568370666  1.0000
  C   C176      1.0  0.8308506747293619  0.19829836885222846  0.01181265497746786  1.0000
  H   H89       1.0  0.7343887846699353  0.1853914841688497  0.37059057961789327  1.0000
  H   H90       1.0  0.7133711312130404  0.16140929635653467  0.45051735450682223  1.0000
  H   H91       1.0  0.6782793218271875  0.11880049991966629  0.43648360961491656  1.0000
  H   H92       1.0  0.7001615761460671  0.14138654652427024  0.35771305700350714  1.0000
  H   H93       1.0  0.72051757538934  0.2040145100269385  0.4596856539758775  1.0000
  H   H94       1.0  0.6919530711929843  0.22332963677557036  0.46380615081723886  1.0000
  H   H95       1.0  0.7136605937606376  0.25283331189439257  0.3865701146848862  1.0000
  H   H96       1.0  0.7446571465814696  0.23706249643160124  0.3840423334305106  1.0000
  H   H97       1.0  0.7610923138787409  0.16403693973906494  0.436710586135839  1.0000
  H   H98       1.0  0.7800879542455372  0.1598753218781053  0.474258710601257  1.0000
  H   H99       1.0  0.7966453233580252  0.23649356430363777  0.4995889023421489  1.0000
  H   H100      1.0  0.7762736986751358  0.24125314754659627  0.461619804329379  1.0000
  H   H101      1.0  0.7858573590669697  0.10662082344447436  0.044802643268746827  1.0000
  H   H102      1.0  0.812960928560886  0.15154318780411258  0.03393512384519607  1.0000
  H   H103      1.0  0.7446062025357383  0.15736940374876907  0.017904161607352198  1.0000
  H   H104      1.0  0.717427680966315  0.1111547633764044  0.023326378496055008  1.0000
  H   H105      1.0  0.8368014012482812  0.24313069675875557  0.02978863140229324  1.0000
  H   H106      1.0  0.8353876781840192  0.2720494734401194  0.0606213548008297  1.0000
  H   H107      1.0  0.7578063862551099  0.2131393049620306  0.08619074487530909  1.0000
  H   H108      1.0  0.7596160622873925  0.18215917249546257  0.05614021748733611  1.0000
  H   H109      1.0  0.8405931778139667  0.20144160625925922  0.05271326001546007  1.0000
  H   H110      1.0  0.8860187572860108  0.2109789177808255  0.045299469653432616  1.0000
  H   H111      1.0  0.8725597025446367  0.2026108122318877  0.4627682667258412  1.0000
  H   H112      1.0  0.8294577859691128  0.1968259691509003  0.46953682297796445  1.0000
  C   C177      1.0  0.5907775782396457  0.890621928717392  0.15136986581507206  1.0000
  C   C178      1.0  0.571976945084942  0.8840354835905473  0.13269745802421212  1.0000
  C   C179      1.0  0.5759495990535091  0.9014841082132108  0.11314740768578536  1.0000
  C   C180      1.0  0.598264517806183  0.9269968331019205  0.1128727078963613  1.0000
  C   C181      1.0  0.6176543661030819  0.9333212619590882  0.13117050742918598  1.0000
  C   C182      1.0  0.614580369932688  0.9147894902857197  0.14896857062192845  1.0000
  H   H113      1.0  0.5531301073739681  0.8654674431016559  0.1344017219013947  1.0000
  H   H114      1.0  0.5602112668803979  0.8950166931380771  0.09903121405764724  1.0000
  H   H115      1.0  0.6365538872816343  0.9528570714381916  0.13113170802390012  1.0000
  H   H116      1.0  0.6292251483239342  0.9194678276456495  0.16321513025182718  1.0000
  C   C183      1.0  0.6069964774587755  0.9818199528918875  0.12759747019640857  1.0000
  C   C184      1.0  0.6113804844611719  0.9771292320454003  0.10225874258635381  1.0000
  C   C185      1.0  0.6242400290029148  0.998750813582559  0.08600916365857114  1.0000
  C   C186      1.0  0.636027853568827  0.02440998097654745  0.09543644915790973  1.0000
  C   C187      1.0  0.634253317959224  0.028358375714512718  0.12156765462092875  1.0000
  C   C188      1.0  0.6191151021086094  0.007073138638805654  0.13739684199243885  1.0000
  C   C189      1.0  0.602001773185028  0.9478793443001626  0.09140945888328743  1.0000
  C   C190      1.0  0.5760707911761346  0.9426882084547608  0.07664201723742567  1.0000
  C   C191      1.0  0.5741339677337248  0.9437423470740696  0.05005375478013888  1.0000
  C   C192      1.0  0.551778982198847  0.939990560771925  0.038514229657036554  1.0000
  C   C193      1.0  0.5295933247806847  0.9342468111249073  0.053134039565785524  1.0000
  C   C194      1.0  0.5302033781748647  0.9317270294480747  0.07972792793683875  1.0000
  C   C195      1.0  0.5532772991930237  0.9368095975184737  0.09103232866390859  1.0000
  C   C196      1.0  0.6506976264942903  0.9635931333562011  0.07747542846296654  1.0000
  C   C197      1.0  0.6696341782050241  0.9624248578418473  0.06243716696820927  1.0000
  C   C198      1.0  0.6628585232392075  0.944351725651658  0.0421982331889316  1.0000
  C   C199      1.0  0.6362119676968956  0.9241068435935751  0.04198425446877993  1.0000
  C   C200      1.0  0.6173653293665086  0.9260970253189843  0.05566337279637253  1.0000
  C   C201      1.0  0.623973237656041  0.9462300229683002  0.07340381887226546  1.0000
  C   C202      1.0  0.6853100762755603  0.9458723705709334  0.022558150271394406  1.0000
  C   C203      1.0  0.723576113913528  0.03260055049154542  0.010379016952154263  1.0000
  C   C204      1.0  0.7354114131269401  0.022330468930116695  0.026138965344076198  1.0000
  C   C205      1.0  0.724345808511804  0.9953018509318584  0.028414550464093524  1.0000
  C   C206      1.0  0.7012959292083484  0.977349922220709  0.014604272187787478  1.0000
  C   C207      1.0  0.6918480532915283  0.988398142039516  0.4967720655183933  1.0000
  C   C208      1.0  0.703100881535093  0.01586404838812872  0.4949349136781066  1.0000
  C   C209      1.0  0.672572766842324  0.9259929486257107  0.4972318384710312  1.0000
  C   C210      1.0  0.6796086436951819  0.9070781451232944  0.48952045667046096  1.0000
  C   C211      1.0  0.6670913942072222  0.8890305409672564  0.46940490499999243  1.0000
  C   C212      1.0  0.6465406185222105  0.8892106748483868  0.4567252593525643  1.0000
  C   C213      1.0  0.6387822868513711  0.9073129864138136  0.46409908632714725  1.0000
  C   C214      1.0  0.6519206740988172  0.9248791328642337  0.48324659283573285  1.0000
  C   C215      1.0  0.7283628368239005  0.9451814432944055  0.031537902589607494  1.0000
  C   C216      1.0  0.7438654497877082  0.9387342030417141  0.04603006245496589  1.0000
  C   C217      1.0  0.7328624413196606  0.9214513797443754  0.06673478309470063  1.0000
  C   C218      1.0  0.7065507621608926  0.9107588866668681  0.07247437911864203  1.0000
  C   C219      1.0  0.6913755582347281  0.9176967886238699  0.058566344299862676  1.0000
  C   C220      1.0  0.7022655446890964  0.9363996022264781  0.03841373919734611  1.0000
  H   H117      1.0  0.5958299450593132  0.9653462181887539  0.14035122270793277  1.0000
  H   H118      1.0  0.6260664494701021  0.9955453532184811  0.06575393412907339  1.0000
  H   H119      1.0  0.647581936986175  0.04082549306645822  0.08218276630927689  1.0000
  H   H120      1.0  0.616794459615529  0.010141590445799544  0.15809399674814284  1.0000
  H   H121      1.0  0.5904464585257588  0.9476667267562139  0.036307125487348824  1.0000
  H   H122      1.0  0.5507151387105144  0.9404332113075409  0.01800504006109549  1.0000
  H   H123      1.0  0.5123141359295754  0.9269040172373124  0.09076694073175312  1.0000
  H   H124      1.0  0.553516979235703  0.9352233749126097  0.11190679670176912  1.0000
  H   H125      1.0  0.6575720235060307  0.9782418842606191  0.09291429381730058  1.0000
  H   H126      1.0  0.690114251852548  0.9776494035924495  0.06742793447013302  1.0000
  H   H127      1.0  0.6298663196194484  0.9074588378101582  0.028173606157268157  1.0000
  H   H128      1.0  0.5966818842658288  0.9125184803684497  0.051634636548512386  1.0000
  H   H129      1.0  0.7512419766733713  0.03543424658696703  0.03895440891000495  1.0000
  H   H130      1.0  0.7321405460110141  0.9891996554525097  0.044753950015113036  1.0000
  H   H131      1.0  0.6748861728963473  0.9769035658928195  0.48520208286214167  1.0000
  H   H132      1.0  0.6940064763119937  0.02376488682737055  0.48233286684125026  1.0000
  H   H133      1.0  0.6947012685533496  0.9051992835175945  0.4996432215095491  1.0000
  H   H134      1.0  0.6752452126579879  0.8766813065172802  0.46382361054961746  1.0000
  H   H135      1.0  0.621464869295929  0.9070427436228737  0.45569707511248825  1.0000
  H   H136      1.0  0.6442246574535268  0.9378061013855941  0.48899666469910147  1.0000
  H   H137      1.0  0.738476294390411  0.9579968764664049  0.01485840829241003  1.0000
  H   H138      1.0  0.7650476621953382  0.9467525764173852  0.040945788386303146  1.0000
  H   H139      1.0  0.6973397542394962  0.8961066829849397  0.08742029802881887  1.0000
  H   H140      1.0  0.6710576482993494  0.9087376081717574  0.06415423464913624  1.0000
  C   C221      1.0  0.6380993993820279  0.9077308915360794  0.40076487710872827  1.0000
  C   C222      1.0  0.6137475326805305  0.9014022863013914  0.39125514287315716  1.0000
  C   C223      1.0  0.6100446027517362  0.921435689140097  0.3821508624228235  1.0000
  C   C224      1.0  0.6301375756777405  0.9482054197775932  0.38226338069815263  1.0000
  C   C225      1.0  0.6536438349361362  0.9540003623397225  0.394035120261891  1.0000
  C   C226      1.0  0.6583118502693959  0.9345134625601522  0.40247399091157166  1.0000
  H   H141      1.0  0.5972413664387515  0.8802871425984716  0.39006206116061615  1.0000
  H   H142      1.0  0.5912353924330714  0.915978776855316  0.3731726800396691  1.0000
  H   H143      1.0  0.6697396406388326  0.9744604731236785  0.39428925636651363  1.0000
  H   H144      1.0  0.6776578341370826  0.939935475849904  0.4098943771724977  1.0000
  C   C227      1.0  0.6489391451202025  0.007897898645859769  0.39826813537858136  1.0000
  C   C228      1.0  0.6449162827993866  0.9998501296048831  0.3726391882169882  1.0000
  C   C229      1.0  0.6540383519930258  0.019677714587843294  0.35369343861588914  1.0000
  C   C230      1.0  0.6673954383329253  0.04652104530141221  0.36009728045832495  1.0000
  C   C231      1.0  0.6711740984753487  0.05373762526985715  0.3856234091959105  1.0000
  C   C232      1.0  0.6616152793154171  0.03455616758194324  0.40455169906463095  1.0000
  C   C233      1.0  0.6276705043250828  0.9695501140293282  0.36467755025232396  1.0000
  C   C234      1.0  0.5991312501381423  0.9672235343768902  0.3651528429670762  1.0000
  C   C235      1.0  0.5899081629173737  0.9739471646348633  0.34342323603671465  1.0000
  C   C236      1.0  0.5670480548671898  0.974846776757575  0.3445775183439698  1.0000
  C   C237      1.0  0.5541046604258473  0.9714704131091593  0.36778538261572363  1.0000
  C   C238      1.0  0.5618300568755767  0.9636665735741148  0.3893384522520343  1.0000
  C   C239      1.0  0.5842106333598277  0.9611271010243507  0.38779617589192017  1.0000
  C   C240      1.0  0.666965532639001  0.976187233073744  0.33445863344541027  1.0000
  C   C241      1.0  0.6766895077927307  0.9716254218899947  0.3124574306780476  1.0000
  C   C242      1.0  0.6600108692021543  0.9524205765052792  0.2944292870119598  1.0000
  C   C243      1.0  0.6331207168070685  0.9409243568305019  0.2989610575493515  1.0000
  C   C244      1.0  0.6228056797126212  0.9454563193404633  0.3209428606140713  1.0000
  C   C245      1.0  0.6393716562083961  0.9637983997110297  0.3387653674321438  1.0000
  C   C246      1.0  0.6722144880445979  0.9471261567555386  0.26831146734376443  1.0000
  C   C247      1.0  0.730530747353202  0.030756869261137295  0.2476255644155933  1.0000
  C   C248      1.0  0.7381113756618723  0.012060246046744938  0.2452665605742113  1.0000
  C   C249      1.0  0.7202166009196085  0.9857835144383515  0.25061893853339956  1.0000
  C   C250      1.0  0.6934813145262089  0.9766401296733134  0.2570654597216498  1.0000
  C   C251      1.0  0.6861945087409564  0.9960669961172043  0.2561750133703387  1.0000
  C   C252      1.0  0.7040773985936531  0.022464128808925787  0.2524560903736864  1.0000
  C   C253      1.0  0.6487593518854127  0.9291662782902868  0.24819979561382446  1.0000
  C   C254      1.0  0.6341964323845488  0.9015936625285181  0.2516044434276611  1.0000
  C   C255      1.0  0.6140846145313038  0.8855073291483205  0.23550269023401765  1.0000
  C   C256      1.0  0.6061853727493792  0.8973627076953393  0.21718161105802142  1.0000
  C   C257      1.0  0.6201241162777041  0.9246406076682311  0.21365086517700563  1.0000
  C   C258      1.0  0.6412322586330557  0.9400268205550839  0.22857117647969374  1.0000
  C   C259      1.0  0.6962632314948312  0.9214519754870563  0.25360261279988433  1.0000
  C   C260      1.0  0.7106635243755997  0.9094585157428363  0.2577366894330957  1.0000
  C   C261      1.0  0.7197400028972263  0.909097399201872  0.282114355774219  1.0000
  C   C262      1.0  0.7095958419611267  0.9163374906359485  0.3027827989700114  1.0000
  C   C263      1.0  0.6942050145022121  0.9275657348998404  0.29911625517049506  1.0000
  C   C264      1.0  0.6888118990465698  0.9322693574883983  0.27428075584699824  1.0000
  H   H145      1.0  0.6406779707228331  0.9934720274790578  0.41414679199183096  1.0000
  H   H146      1.0  0.6510104402950487  0.0145178367976877  0.3328930774421247  1.0000
  H   H147      1.0  0.6754600453810566  0.0617976742751987  0.344571698433177  1.0000
  H   H148      1.0  0.6642963637517201  0.04018120195129838  0.42455861240029896  1.0000
  H   H149      1.0  0.6009716232432408  0.9795198808527463  0.32616720053581594  1.0000
  H   H150      1.0  0.5606405939791106  0.9806370886436699  0.3278685544576022  1.0000
  H   H151      1.0  0.5515682795523038  0.9595990271554914  0.40794664702714606  1.0000
  H   H152      1.0  0.5905377089266683  0.9566917514152831  0.4054382654754134  1.0000
  H   H153      1.0  0.6810643174853013  0.9899546489677886  0.34863981607740224  1.0000
  H   H154      1.0  0.6978802515552126  0.9818175604909556  0.3097880315943785  1.0000
  H   H155      1.0  0.6187748201433967  0.9269571850321041  0.28551318367726275  1.0000
  H   H156      1.0  0.6016809653770052  0.9346038097180714  0.3237189580622766  1.0000
  H   H157      1.0  0.758985958830636  0.01862914531898907  0.2413672203429796  1.0000
  H   H158      1.0  0.7283429166941124  0.9729909414810711  0.25085561490564345  1.0000
  H   H159      1.0  0.6661812298294362  0.9909631449213122  0.2602547708361498  1.0000
  H   H160      1.0  0.6970644977147691  0.036070523903298346  0.25276454564570916  1.0000
  H   H161      1.0  0.6387229584476712  0.8923614765923876  0.26711256572043046  1.0000
  H   H162      1.0  0.6028166970137089  0.863845318960442  0.23882973923728254  1.0000
  H   H163      1.0  0.6147930267837352  0.932624842356671  0.19804186443049293  1.0000
  H   H164      1.0  0.651285949759765  0.960698723358853  0.22432846151168195  1.0000
  H   H165      1.0  0.6904396635598755  0.9230963481636373  0.23449778563711315  1.0000
  H   H166      1.0  0.7174345245051625  0.9037281009660294  0.24075224976919823  1.0000
  H   H167      1.0  0.7149133017567969  0.9144929525789209  0.32274897293012933  1.0000
  H   H168      1.0  0.6882648341221631  0.9341479802989641  0.3159842966185348  1.0000
  C   C265      1.0  0.33675391295364643  0.9174849672456559  0.024414525776144915  1.0000
  C   C266      1.0  0.35377262240832363  0.9079650206357417  0.02702203980838301  1.0000
  C   C267      1.0  0.3800161295300397  0.9249811370816821  0.034843999914017994  1.0000
  C   C268      1.0  0.3896844133742709  0.951762502679392  0.03817706282510218  1.0000
  C   C269      1.0  0.37252450753060473  0.9613112803841691  0.033413077847074445  1.0000
  C   C270      1.0  0.34589399387867004  0.9442220655084453  0.02849564122114102  1.0000
  H   H169      1.0  0.3458390036108119  0.8861640560035107  0.024540817840350476  1.0000
  H   H170      1.0  0.3922419851867211  0.9166792924716901  0.03878019958027131  1.0000
  H   H171      1.0  0.37927025978846407  0.9826713917423636  0.03657057344924  1.0000
  H   H172      1.0  0.3324078347807128  0.9519489537759787  0.026639671669290578  1.0000
  C   C271      1.0  0.4340051046261136  0.006963462690631861  0.014623671890430456  1.0000
  C   C272      1.0  0.4314111677779768  0.0007978377430750695  0.04076246119632732  1.0000
  C   C273      1.0  0.44456602380355986  0.02178912337504757  0.057614400891173416  1.0000
  C   C274      1.0  0.45825485752459055  0.047641982008134624  0.04949931127860354  1.0000
  C   C275      1.0  0.4609028402964856  0.05359356141399774  0.024197425144723228  1.0000
  C   C276      1.0  0.4487395886152984  0.03303593273106098  0.006425357553522359  1.0000
  C   C277      1.0  0.4179010969804403  0.9702853692693737  0.05059811043629988  1.0000
  C   C278      1.0  0.44120647201607094  0.9647998386699955  0.04308635157592557  1.0000
  C   C279      1.0  0.4627095785334692  0.9735689128922679  0.06015498594929335  1.0000
  C   C280      1.0  0.4831586086209908  0.969208840499544  0.0542588343250234  1.0000
  C   C281      1.0  0.48240261221437974  0.9559358457662178  0.032004077444117436  1.0000
  C   C282      1.0  0.4619249272450274  0.9479419485860255  0.01452861334748001  1.0000
  C   C283      1.0  0.4420728307921221  0.9531033545296728  0.019886811217461053  1.0000
  C   C284      1.0  0.3949775550440889  0.9774404606097251  0.08973933848275638  1.0000
  C   C285      1.0  0.38493923559180904  0.9725603951878959  0.11425357873048604  1.0000
  C   C286      1.0  0.389675674121287  0.9572915562138304  0.13121842469471406  1.0000
  C   C287      1.0  0.4043465326470557  0.9460231519635718  0.12250194430021294  1.0000
  C   C288      1.0  0.41231661370886363  0.9487921139593088  0.09717873645227253  1.0000
  C   C289      1.0  0.40959791543062524  0.9659823115948246  0.08049635015852576  1.0000
  C   C290      1.0  0.38052957801829523  0.9566979899956111  0.16094070911396843  1.0000
  C   C291      1.0  0.4368351296400508  0.040967699248585905  0.17364266441943596  1.0000
  C   C292      1.0  0.4102305150007302  0.03171502010581273  0.1743592894350663  1.0000
  C   C293      1.0  0.39181493836965975  0.005013747743026986  0.17154613855481302  1.0000
  C   C294      1.0  0.40007447107805644  0.9864466625590385  0.16921060835362894  1.0000
  C   C295      1.0  0.4272120036654247  0.9961839895984448  0.16846449578998138  1.0000
  C   C296      1.0  0.4453560006864744  0.022916506599463423  0.1714840595063556  1.0000
  C   C297      1.0  0.38272789829046977  0.9345149289588931  0.17817404696277475  1.0000
  C   C298      1.0  0.3663504878123434  0.9075658647269708  0.17240903732837115  1.0000
  C   C299      1.0  0.3648178380902992  0.8877081505018268  0.18768203522510807  1.0000
  C   C300      1.0  0.3806647601450562  0.8942792011191744  0.20929757190392903  1.0000
  C   C301      1.0  0.3975188907920237  0.9206658489734326  0.21509226308337637  1.0000
  C   C302      1.0  0.39714538035490077  0.9403598527990941  0.2011283571209853  1.0000
  C   C303      1.0  0.33947619930357636  0.9486792191008219  0.18734874833370221  1.0000
  C   C304      1.0  0.31212114312971173  0.9372791151034652  0.1911314963520499  1.0000
  C   C305      1.0  0.2952839877326076  0.9243867229763315  0.17082873755107694  1.0000
  C   C306      1.0  0.30507632282579294  0.9222347928166525  0.14662198259023795  1.0000
  C   C307      1.0  0.3319937124297289  0.9332920782409222  0.1440369722130657  1.0000
  C   C308      1.0  0.349661977459437  0.947248222816929  0.16342697500468814  1.0000
  H   H173      1.0  0.42664789626619243  0.9912874490385114  0.4999109374060217  1.0000
  H   H174      1.0  0.444636125204776  0.019601540912663973  0.07884892741008695  1.0000
  H   H175      1.0  0.466257739395241  0.06302240161691  0.06443223238800962  1.0000
  H   H176      1.0  0.4498552920957459  0.037051564352766686  0.48596837111653796  1.0000
  H   H177      1.0  0.4641674330980189  0.9842495046076805  0.07808923505458928  1.0000
  H   H178      1.0  0.499088689231104  0.9761852805830353  0.06758177411209157  1.0000
  H   H179      1.0  0.462730127815977  0.9391789855074504  0.49617261470672647  1.0000
  H   H180      1.0  0.4267211410036825  0.9484918674130367  0.005936485046920126  1.0000
  H   H181      1.0  0.39094740083876545  0.9903247010243102  0.07829778185800093  1.0000
  H   H182      1.0  0.3745369675541491  0.9826545100065223  0.1210355207774328  1.0000
  H   H183      1.0  0.40840208268517364  0.9334937459726992  0.13460018085943204  1.0000
  H   H184      1.0  0.4225433935764486  0.9385908863859597  0.0902198691172221  1.0000
  H   H185      1.0  0.40228586689533763  0.04541985567793683  0.17568584110179084  1.0000
  H   H186      1.0  0.37139155263015783  0.0008655949041569411  0.17046596311165388  1.0000
  H   H187      1.0  0.43520589416936817  0.9831087723548105  0.16542398039475276  1.0000
  H   H188      1.0  0.4665826369813731  0.02937831625821485  0.17238866764059607  1.0000
  H   H189      1.0  0.3524360413922266  0.9013018393695252  0.15704680079947672  1.0000
  H   H190      1.0  0.35069614263479304  0.8670543595237133  0.18501438211467683  1.0000
  H   H191      1.0  0.40947664476716583  0.9257424047323993  0.23264123409418344  1.0000
  H   H192      1.0  0.40817188954600475  0.9603960282937775  0.20799197191605887  1.0000
  H   H193      1.0  0.3526298431629277  0.9573867793210126  0.20307608726633686  1.0000
  H   H194      1.0  0.30441278422000356  0.9387574639465024  0.21022293771999742  1.0000
  H   H195      1.0  0.29244503308189645  0.9120581890028927  0.13134006083028532  1.0000
  H   H196      1.0  0.33891046970446814  0.9287956470483559  0.12653281451536383  1.0000
  C   C309      1.0  0.36501800881004876  0.8830536231605816  0.2719877109946023  1.0000
  C   C310      1.0  0.37438360310732965  0.8779779287874245  0.2940742724535939  1.0000
  C   C311      1.0  0.38683231374853055  0.897428441612845  0.31260098847760537  1.0000
  C   C312      1.0  0.39135625005886476  0.923108387181469  0.3086725486924092  1.0000
  C   C313      1.0  0.3794325571421787  0.9268527798758175  0.28698368113759787  1.0000
  C   C314      1.0  0.3654933637575683  0.9064995491367811  0.2688973383635813  1.0000
  H   H197      1.0  0.3738159985608186  0.8593762073472039  0.2982044691462767  1.0000
  H   H198      1.0  0.3960546091783959  0.8934011346805156  0.32922653364260823  1.0000
  H   H199      1.0  0.3815304465628667  0.9461931514459986  0.2832104389735453  1.0000
  H   H200      1.0  0.35775767879212444  0.9105348793885163  0.25163354298162555  1.0000
  C   C315      1.0  0.4383414329305339  0.979852949973571  0.2893601447113585  1.0000
  C   C316      1.0  0.4275999210325659  0.9766715178798505  0.3139667275436686  1.0000
  C   C317      1.0  0.4354005479320418  0.9998219767470787  0.32782005520099483  1.0000
  C   C318      1.0  0.4511584775869429  0.02453426297700112  0.31782726836961445  1.0000
  C   C319      1.0  0.46086139401073356  0.027165186498019134  0.29264451436880895  1.0000
  C   C320      1.0  0.4549818559147931  0.004830030062782154  0.2782499350077446  1.0000
  C   C321      1.0  0.41085342247073303  0.9475048356961844  0.3276047185016582  1.0000
  C   C322      1.0  0.4353424620181066  0.946600036030181  0.3386722488594577  1.0000
  C   C323      1.0  0.4467782527805297  0.9590722394814171  0.3619189125364974  1.0000
  C   C324      1.0  0.4679269357074919  0.957885895623622  0.3718593201707418  1.0000
  C   C325      1.0  0.4789548971943989  0.9455257029272894  0.35848128522816763  1.0000
  C   C326      1.0  0.4692356272950441  0.9344455842345027  0.334536232255982  1.0000
  C   C327      1.0  0.44810040028851317  0.9355661059053834  0.32460164453253043  1.0000
  C   C328      1.0  0.3725306921243309  0.9564419879700551  0.33950449610283995  1.0000
  C   C329      1.0  0.3562128364168749  0.9593242201596593  0.3567023324958098  1.0000
  C   C330      1.0  0.3529851816669186  0.9497118316078967  0.38198014503956573  1.0000
  C   C331      1.0  0.36934745607215747  0.9399351202043971  0.3894296308544562  1.0000
  C   C332      1.0  0.3854092490209336  0.9372757349269065  0.37176038168726283  1.0000
  C   C333      1.0  0.3885366331414914  0.9467631151920959  0.34691324254218026  1.0000
  C   C334      1.0  0.33053483456915744  0.9496281344390874  0.4012925490206164  1.0000
  C   C335      1.0  0.37367922318117086  0.03545210968136181  0.4168297708673501  1.0000
  C   C336      1.0  0.35599041154974664  0.02555458177989722  0.3965881211297025  1.0000
  C   C337      1.0  0.3424344119498099  0.9984647659839311  0.39181191433900964  1.0000
  C   C338      1.0  0.34520370794404814  0.9810135770098074  0.40779920928705976  1.0000
  C   C339      1.0  0.3628230681817993  0.9919554275337821  0.4282154563484939  1.0000
  C   C340      1.0  0.37680828336359573  0.018604763524322943  0.43292764412046497  1.0000
  C   C341      1.0  0.3211961679439138  0.9323700706401308  0.42672555918551586  1.0000
  C   C342      1.0  0.31964996344622837  0.9078488217783501  0.4274879674993835  1.0000
  C   C343      1.0  0.31290871627369543  0.8930511645676623  0.4498810442601337  1.0000
  C   C344      1.0  0.30571391440530826  0.90191194157114  0.4713215956211153  1.0000
  C   C345      1.0  0.304371565508278  0.9244898997283555  0.4702759516486606  1.0000
  C   C346      1.0  0.31189625793317866  0.9395905591279136  0.44791197444187486  1.0000
  C   C347      1.0  0.2851880381809121  0.9452136995134114  0.38932487246018427  1.0000
  C   C348      1.0  0.26322438266905046  0.9355054685738737  0.37349083516301346  1.0000
  C   C349      1.0  0.2567771924707878  0.914932639525937  0.3573541625046126  1.0000
  C   C350      1.0  0.272241977841194  0.9038052030703639  0.3563104585024223  1.0000
  C   C351      1.0  0.2952264682129165  0.9144995556873923  0.3705653600044575  1.0000
  C   C352      1.0  0.30298946428288276  0.9363575069035087  0.3864032772421569  1.0000
  H   H201      1.0  0.4363582265708943  0.9631109113499187  0.27814129667294407  1.0000
  H   H202      1.0  0.4279567362958785  0.9977665163341939  0.34764655130208355  1.0000
  H   H203      1.0  0.4560620958192425  0.04193418474461042  0.32971734611947473  1.0000
  H   H204      1.0  0.46207755832274106  0.00531461147528467  0.25891231141325804  1.0000
  H   H205      1.0  0.43774458520059545  0.9684969729897502  0.3728719846487035  1.0000
  H   H206      1.0  0.4768202774283037  0.9672811393385855  0.3901629396143594  1.0000
  H   H207      1.0  0.4794742958795547  0.9268859627835355  0.32212430250502655  1.0000
  H   H208      1.0  0.4419781036921842  0.927710525091812  0.305593815882974  1.0000
  H   H209      1.0  0.3747464675354791  0.9655551203250161  0.32069454442024153  1.0000
  H   H210      1.0  0.34522995720624294  0.9686282542033952  0.3505274071445607  1.0000
  H   H211      1.0  0.3685683244944605  0.9319232940865602  0.4086780158167851  1.0000
  H   H212      1.0  0.39650094412547204  0.9277118269411808  0.37751433349116004  1.0000
  H   H213      1.0  0.3538807060047108  0.03827463765608763  0.3828628315098196  1.0000
  H   H214      1.0  0.32987797614398195  0.9905800289762958  0.3750622110770919  1.0000
  H   H215      1.0  0.36692591772134114  0.9794345877980043  0.441376214621467  1.0000
  H   H216      1.0  0.39096416018992614  0.025619846253440492  0.44788481485817466  1.0000
  H   H217      1.0  0.32531630708414583  0.9007499132848037  0.4106839450700655  1.0000
  H   H218      1.0  0.3141268370096532  0.8752655731045993  0.45071717144404455  1.0000
  H   H219      1.0  0.29999994739527025  0.9327794929674429  0.48762898566277396  1.0000
  H   H220      1.0  0.31087845218532084  0.9572431649191725  0.44875392153657867  1.0000
  H   H221      1.0  0.29038494407902093  0.9613867807122428  0.40324221913623226  1.0000
  H   H222      1.0  0.2512497899454457  0.9447368659648101  0.3750641510473562  1.0000
  H   H223      1.0  0.2668361660435578  0.8870339001605456  0.3436424526765799  1.0000
  H   H224      1.0  0.30677726497407576  0.904757719308303  0.36898040429852896  1.0000
  C   C353      1.0  0.822071138228731  0.6532729016951444  0.2316537892296576  1.0000
  C   C354      1.0  0.8065927413554337  0.627811855403229  0.22200437713505727  1.0000
  C   C355      1.0  0.7804178904309583  0.6184040373515485  0.2157382731813864  1.0000
  C   C356      1.0  0.7695788612187217  0.6346453897308904  0.21766078371330208  1.0000
  C   C357      1.0  0.7854162748665953  0.6601849322777482  0.22770594974181851  1.0000
  C   C358      1.0  0.8113390794352592  0.6695471540120231  0.23388863497412465  1.0000
  H   H225      1.0  0.8150960260037626  0.6148642231363384  0.2202215444621707  1.0000
  H   H226      1.0  0.7682298538670436  0.5992643233328013  0.20664951249316718  1.0000
  H   H227      1.0  0.7784978637649891  0.674108305197003  0.226167553322233  1.0000
  H   H228      1.0  0.8229241318054912  0.6904053622831  0.239353531208642  1.0000
  C   C359      1.0  0.7238503081083962  0.6482199451891335  0.23416023081112589  1.0000
  C   C360      1.0  0.7277229839980357  0.6427174397057638  0.2088862982078986  1.0000
  C   C361      1.0  0.7144346608466221  0.6477823983370463  0.1895331548512977  1.0000
  C   C362      1.0  0.6975951718141432  0.6572000228136108  0.19522696757700178  1.0000
  C   C363      1.0  0.692827866320185  0.6607677002144315  0.22068907729586568  1.0000
  C   C364      1.0  0.7058627544872068  0.6564169767094293  0.23992776240687316  1.0000
  C   C365      1.0  0.7422251552035872  0.62659112525836  0.20341558206258842  1.0000
  C   C366      1.0  0.7185775601018066  0.5969422170125647  0.20884361886208413  1.0000
  C   C367      1.0  0.6969256285038725  0.5848301224630492  0.1927100501561062  1.0000
  C   C368      1.0  0.6756897668216857  0.5600337311875768  0.19844925818599476  1.0000
  C   C369      1.0  0.6748917707787252  0.5469087796982277  0.22031272306459257  1.0000
  C   C370      1.0  0.69593457822134  0.5589205812473181  0.23725448338267544  1.0000
  C   C371      1.0  0.7174213035171443  0.5837890969886833  0.23140935297635648  1.0000
  C   C372      1.0  0.7683894901407156  0.6587436758212185  0.16521698556755257  1.0000
  C   C373      1.0  0.7760034523265865  0.6635036361224783  0.1396002602186244  1.0000
  C   C374      1.0  0.7676496588231141  0.643011193720894  0.122644726111665  1.0000
  C   C375      1.0  0.7550954700109401  0.6174251677577993  0.13212245083787524  1.0000
  C   C376      1.0  0.7498868906406163  0.6125951124021991  0.1578340407327274  1.0000
  C   C377      1.0  0.7536923908651493  0.632639162090195  0.17470576812426925  1.0000
  C   C378      1.0  0.7667128306416471  0.6488031895551367  0.0923154249967129  1.0000
  C   C379      1.0  0.7108424956967778  0.676632528757928  0.10652822914401291  1.0000
  C   C380      1.0  0.7359132807674813  0.6939218204038787  0.09689472480557983  1.0000
  C   C381      1.0  0.7528734139929935  0.684995792602037  0.09149268360762566  1.0000
  C   C382      1.0  0.7456030949067627  0.658603363898819  0.09311721470694578  1.0000
  C   C383      1.0  0.719621924649666  0.6414395365469087  0.10217745783227988  1.0000
  C   C384      1.0  0.7025196213530667  0.6502352601481558  0.10904262460356488  1.0000
  C   C385      1.0  0.7585596160252601  0.6237644169793498  0.07408203247666278  1.0000
  C   C386      1.0  0.7726080220829377  0.6104640635728671  0.07472280465495923  1.0000
  C   C387      1.0  0.7671295961440305  0.5894773058234701  0.05832559399006374  1.0000
  C   C388      1.0  0.7482100978311657  0.5823464143242297  0.03967549585724318  1.0000
  C   C389      1.0  0.7349547863943134  0.5964459285302319  0.037929134625325364  1.0000
  C   C390      1.0  0.7395998382036592  0.6163829839866238  0.0552103897396598  1.0000
  C   C391      1.0  0.7965671293864702  0.6795788594934944  0.05442567176775271  1.0000
  C   C392      1.0  0.820399968539928  0.6959441035160295  0.042549367806768885  1.0000
  C   C393      1.0  0.8440720825532607  0.7021234530662872  0.05446000924143073  1.0000
  C   C394      1.0  0.8427683430553836  0.6904536992251434  0.07833696925733968  1.0000
  C   C395      1.0  0.8191182300381753  0.6756341145631836  0.09075161496666521  1.0000
  C   C396      1.0  0.7955033438293718  0.6699720566143286  0.07920394196845285  1.0000
  H   H229      1.0  0.7330812219844807  0.6435955443966709  0.2498119109034531  1.0000
  H   H230      1.0  0.7160123065637266  0.6442324405014622  0.169753606030605  1.0000
  H   H231      1.0  0.6878652477775846  0.6613436062418215  0.1802775567203492  1.0000
  H   H232      1.0  0.701794575195625  0.6588689352072061  0.2601053931257991  1.0000
  H   H233      1.0  0.6957405792766329  0.59370264390273  0.17493798256490528  1.0000
  H   H234      1.0  0.6593624409829738  0.5523056027437604  0.18510517272304577  1.0000
  H   H235      1.0  0.6945035461232469  0.5478457662516262  0.25467347638577487  1.0000
  H   H236      1.0  0.733166302619683  0.591445718306057  0.24528984021738287  1.0000
  H   H237      1.0  0.7729439931270786  0.6757986329191061  0.177105317344175  1.0000
  H   H238      1.0  0.7848552787905291  0.6836476993375327  0.1314341493881036  1.0000
  H   H239      1.0  0.7475640838622114  0.5997629691448173  0.11993924358108002  1.0000
  H   H240      1.0  0.7393509723953862  0.5928209605126117  0.16506004197317112  1.0000
  H   H241      1.0  0.7431534122745862  0.7149605605228585  0.09703770061405832  1.0000
  H   H242      1.0  0.7731426643146498  0.7009734365755272  0.08671104490019285  1.0000
  H   H243      1.0  0.7118325288050136  0.6203216159676714  0.10497023902475809  1.0000
  H   H244      1.0  0.6825089132306817  0.6361338370775076  0.1157504597864156  1.0000
  H   H245      1.0  0.7883100981347915  0.6162869421055337  0.08835904963971093  1.0000
  H   H246      1.0  0.7786435822568265  0.5799854098453878  0.059644191778704635  1.0000
  H   H247      1.0  0.7201947048756417  0.5911425961617831  0.02276184714914531  1.0000
  H   H248      1.0  0.7294402136524507  0.6273268283196227  0.05255670441513151  1.0000
  H   H249      1.0  0.7780205129609696  0.6747394716299638  0.045021083920506376  1.0000
  H   H250      1.0  0.8205088164156282  0.705008279353799  0.02414116600705873  1.0000
  H   H251      1.0  0.8608948301578713  0.693988274495217  0.08858563816658052  1.0000
  H   H252      1.0  0.8187598187478015  0.6676990995976867  0.10967563690080415  1.0000
  C   C397      1.0  0.7607000158230286  0.5844700753021117  0.4773820627267709  1.0000
  C   C398      1.0  0.7469226636299048  0.5706344098428281  0.455860032614689  1.0000
  C   C399      1.0  0.7399407648680578  0.5833030025169827  0.4382742021688603  1.0000
  C   C400      1.0  0.7429382628344128  0.6081107219242268  0.44333364461814  1.0000
  C   C401      1.0  0.7592034128605588  0.6225067345964116  0.46360245393948785  1.0000
  C   C402      1.0  0.7683369312542032  0.6108571722463597  0.48054227428730656  1.0000
  H   H253      1.0  0.7404422025040527  0.5503248874250785  0.45341179014114946  1.0000
  H   H254      1.0  0.7293913924813442  0.5724083479113823  0.42180579459526524  1.0000
  H   H255      1.0  0.7641577625383588  0.6425638146053728  0.4676705715837132  1.0000
  H   H256      1.0  0.7803560207287781  0.6214119887684952  0.49727645778710994  1.0000
  C   C403      1.0  0.7080041763318183  0.6289264502688455  0.46519904946700213  1.0000
  C   C404      1.0  0.7181587081282367  0.6360624238969316  0.4398610978450532  1.0000
  C   C405      1.0  0.715413037485434  0.6557028006871997  0.42770136422845584  1.0000
  C   C406      1.0  0.7027726202103723  0.667231910976514  0.4396962003725881  1.0000
  C   C407      1.0  0.6927045563481082  0.6595072254559288  0.46455691930952075  1.0000
  C   C408      1.0  0.6956229281905351  0.6406553251715887  0.4770813673358053  1.0000
  C   C409      1.0  0.7297443590781703  0.620347652247815  0.4247972287428072  1.0000
  C   C410      1.0  0.7019476943628832  0.5987867161837548  0.41086048236411626  1.0000
  C   C411      1.0  0.6940727487821968  0.6019029490137761  0.38668845287100817  1.0000
  C   C412      1.0  0.669783699542377  0.582925352160259  0.3767887846123139  1.0000
  C   C413      1.0  0.6529718477723241  0.5604421533131909  0.39060331286435424  1.0000
  C   C414      1.0  0.6605430997868719  0.5569885640729955  0.4142651301779529  1.0000
  C   C415      1.0  0.6837644121042893  0.5764643341283314  0.42489422725602194  1.0000
  C   C416      1.0  0.7750424491730797  0.6630623401826347  0.4153844930204507  1.0000
  C   C417      1.0  0.7968011145458882  0.6789789637051815  0.4010015534809722  1.0000
  C   C418      1.0  0.7989020641137107  0.6725907324877495  0.3752193486684997  1.0000
  C   C419      1.0  0.7790581479858039  0.6478255890389834  0.3668231573646336  1.0000
  C   C420      1.0  0.758074536952186  0.6306170943913052  0.38236813909242456  1.0000
  C   C421      1.0  0.7547987719853769  0.6389611004404477  0.40640049072650347  1.0000
  C   C422      1.0  0.8224548223145085  0.6952540320384241  0.3574647408096775  1.0000
  C   C423      1.0  0.7795122287097246  0.7382685021910195  0.34908794920845426  1.0000
  C   C424      1.0  0.8009531424413999  0.747795252477287  0.36555247684152076  1.0000
  C   C425      1.0  0.8149200681800949  0.7349382632938872  0.36784940163444535  1.0000
  C   C426      1.0  0.809757735067622  0.7133326068966552  0.3523082998471829  1.0000
  C   C427      1.0  0.7889512394126826  0.705136659449646  0.33497854547624106  1.0000
  C   C428      1.0  0.7740121948205584  0.7172696877362633  0.333343150543441  1.0000
  C   C429      1.0  0.8293876625569415  0.6853110552933632  0.3321054495148212  1.0000
  C   C430      1.0  0.8302666733940481  0.6620754137204524  0.3311703838474313  1.0000
  C   C431      1.0  0.8382213916989734  0.6544684646366747  0.309863690434686  1.0000
  C   C432      1.0  0.8475041466784743  0.6704489445822617  0.2886074362488123  1.0000
  C   C433      1.0  0.8481436404834444  0.6942075080760721  0.2887684537807487  1.0000
  C   C434      1.0  0.8385890513582068  0.7012297544802087  0.3102148250525233  1.0000
  C   C435      1.0  0.8710435405108425  0.7344787574151137  0.36500540522698977  1.0000
  C   C436      1.0  0.8961361198318202  0.7457678113502522  0.3753706663491147  1.0000
  C   C437      1.0  0.9022635138522114  0.7306928732999532  0.3909389277200772  1.0000
  C   C438      1.0  0.8825489881617133  0.7045768778288225  0.3965357419325665  1.0000
  C   C439      1.0  0.8571634349053261  0.6947055745120277  0.38804643205601425  1.0000
  C   C440      1.0  0.8505316997544567  0.7092427624113258  0.3716536833227265  1.0000
  H   H257      1.0  0.7101151955709328  0.613872760351699  0.4753703135626977  1.0000
  H   H258      1.0  0.7229739862076546  0.6613905784593551  0.40813676411304695  1.0000
  H   H259      1.0  0.69934700239739  0.6813385957452994  0.4294725570797566  1.0000
  H   H260      1.0  0.6883574141847364  0.6340615672798386  0.49685936418028664  1.0000
  H   H261      1.0  0.7053301183519007  0.6190917291559573  0.37481389488326217  1.0000
  H   H262      1.0  0.662448450022986  0.5848347433572186  0.3583668269825743  1.0000
  H   H263      1.0  0.6474105660143582  0.5398798436399296  0.4260465695930128  1.0000
  H   H264      1.0  0.6890081715932532  0.5738630170857656  0.4439369753703356  1.0000
  H   H265      1.0  0.7741521178882371  0.6703674769702284  0.4344194812537074  1.0000
  H   H266      1.0  0.8110553800755531  0.6970971209867586  0.40965576082998945  1.0000
  H   H267      1.0  0.7792937943210001  0.6409694517108787  0.34705874031200235  1.0000
  H   H268      1.0  0.7438862957879864  0.611383699860273  0.373890469037458  1.0000
  H   H269      1.0  0.805807892763763  0.7638519691272734  0.3790682496728598  1.0000
  H   H270      1.0  0.8284942244568851  0.7410941311121548  0.38336140386774326  1.0000
  H   H271      1.0  0.7832490556716035  0.6880943894021335  0.32224070072088423  1.0000
  H   H272      1.0  0.7583725989673139  0.7096570186277401  0.3200601741438173  1.0000
  H   H273      1.0  0.8246929668572041  0.649354203982277  0.34837404015119394  1.0000
  H   H274      1.0  0.8379825477868995  0.6358167901158349  0.31028466398203786  1.0000
  H   H275      1.0  0.8563637114440464  0.7075745870384907  0.2722515469505463  1.0000
  H   H276      1.0  0.8415084117335763  0.7215170432618817  0.31088605476396913  1.0000
  H   H277      1.0  0.868471122307774  0.7459985776867902  0.3499764555895011  1.0000
  H   H278      1.0  0.9109544593717963  0.7663674916388143  0.37064101884476497  1.0000
  H   H279      1.0  0.8872861754239991  0.6924667721909046  0.4090854095722869  1.0000
  H   H280      1.0  0.8428724129636742  0.6747300547784087  0.3940157205592481  1.0000
  C   C441      1.0  0.5483680158059041  0.38396546031362255  0.11921311271115466  1.0000
  C   C442      1.0  0.5654212060875804  0.39543627882792726  0.13945883638635737  1.0000
  C   C443      1.0  0.559855149018167  0.4096712450840309  0.1577096886387861  1.0000
  C   C444      1.0  0.5389423075447166  0.4140775301416886  0.1541438292959866  1.0000
  C   C445      1.0  0.522754676618727  0.40205970722380585  0.13347325213290342  1.0000
  C   C446      1.0  0.526199277601775  0.38558012394025126  0.11750361091425844  1.0000
  H   H281      1.0  0.5826143173347107  0.3929490648564884  0.1415283966643066  1.0000
  H   H282      1.0  0.5727319086747992  0.41863940888137813  0.17425336705863584  1.0000
  H   H283      1.0  0.505325811461125  0.40359370062647054  0.1314242555397557  1.0000
  H   H284      1.0  0.5118066167442801  0.37507066434692476  0.10342175475979831  1.0000
  C   C447      1.0  0.5236413186873361  0.45656767477816734  0.14136834911750232  1.0000
  C   C448      1.0  0.5198183485146752  0.4468578595586304  0.16655808701125926  1.0000
  C   C449      1.0  0.5040093499232147  0.4519030651850303  0.1833101182374942  1.0000
  C   C450      1.0  0.4910708841120073  0.4639323195761477  0.17421864159090497  1.0000
  C   C451      1.0  0.4936910533468596  0.47196753054784046  0.14890513359428603  1.0000
  C   C452      1.0  0.510888204307482  0.46915011983361493  0.13263790093709826  1.0000
  C   C453      1.0  0.5323436923973981  0.42932305435893775  0.17626841417215844  1.0000
  C   C454      1.0  0.5572800040683357  0.4523782785427634  0.19059528857099894  1.0000
  C   C455      1.0  0.5567428297372793  0.45841912667663276  0.21650844137631126  1.0000
  C   C456      1.0  0.5776235378706095  0.47919357897197923  0.228210342010535  1.0000
  C   C457      1.0  0.6003496728018801  0.49630533444504166  0.21423285625629396  1.0000
  C   C458      1.0  0.6005990201361152  0.492560747609933  0.1873483603396494  1.0000
  C   C459      1.0  0.579532823508356  0.47056239240334724  0.17613164626852568  1.0000
  C   C460      1.0  0.48513229834861255  0.38953517541479704  0.18208172906614295  1.0000
  C   C461      1.0  0.46684215125904127  0.36517609062112427  0.1919947831196609  1.0000
  C   C462      1.0  0.47170458823568195  0.35549003944713314  0.2141183980107006  1.0000
  C   C463      1.0  0.49620420819069316  0.37165798096126584  0.22590177739602468  1.0000
  C   C464      1.0  0.5150265308310542  0.39504129578038055  0.21495452519461145  1.0000
  C   C465      1.0  0.5102367321777929  0.404739600355558  0.19274050768925569  1.0000
  C   C466      1.0  0.4490454399734593  0.32754935776261707  0.22536828557334376  1.0000
  C   C467      1.0  0.3942501435617632  0.35720784118628884  0.2406397314938692  1.0000
  C   C468      1.0  0.38890872467959187  0.3391298510974143  0.22129628798858977  1.0000
  C   C469      1.0  0.4048788129030563  0.32811628869222537  0.21769182323753083  1.0000
  C   C470      1.0  0.42699609381362774  0.3351666934952303  0.2328274712395557  1.0000
  C   C471      1.0  0.43184824429082785  0.3539561764613991  0.25291392335605983  1.0000
  C   C472      1.0  0.41574957684302344  0.36448175805950656  0.2569665212381708  1.0000
  C   C473      1.0  0.4567316510413691  0.3161963652900179  0.24933661818870098  1.0000
  C   C474      1.0  0.47989246431289984  0.3149687403731662  0.2478680606986301  1.0000
  C   C475      1.0  0.4886954372012083  0.3079611959254088  0.269211613546397  1.0000
  C   C476      1.0  0.4751912297460856  0.301787958865549  0.292176981535114  1.0000
  C   C477      1.0  0.451320919427023  0.3011213997685488  0.2935950997983132  1.0000
  C   C478      1.0  0.44181397510793735  0.3074012284781782  0.272216627485789  1.0000
  C   C479      1.0  0.41819911517329283  0.28056714110230774  0.20555924920463373  1.0000
  C   C480      1.0  0.41120875060442713  0.26181107989192315  0.18686899368734225  1.0000
  C   C481      1.0  0.4275771370582589  0.2666375654765896  0.16539119489728618  1.0000
  C   C482      1.0  0.4520965549262091  0.2896207781506012  0.16420082914311518  1.0000
  C   C483      1.0  0.4593791736676613  0.3084025429967411  0.18358307205368044  1.0000
  C   C484      1.0  0.44174633879645475  0.30498876572817724  0.2041488908224917  1.0000
  H   H285      1.0  0.5370815103990765  0.4549444567939927  0.12829430751534313  1.0000
  H   H286      1.0  0.5021856927407015  0.44639421568838444  0.2036658382266824  1.0000
  H   H287      1.0  0.47690215665080976  0.4662527481988579  0.18688994536619663  1.0000
  H   H288      1.0  0.5133755114837735  0.4754018172570304  0.1125735644816071  1.0000
  H   H289      1.0  0.5384142559690303  0.4469849299559326  0.22783398777926192  1.0000
  H   H290      1.0  0.5758783410260203  0.48299078757904657  0.2486168892206477  1.0000
  H   H291      1.0  0.6168210049313536  0.5059286320146483  0.1743206840268068  1.0000
  H   H292      1.0  0.5811727662185523  0.46793507556352737  0.15529364967163387  1.0000
  H   H293      1.0  0.47987351239120585  0.3964238396567248  0.16486429897350385  1.0000
  H   H294      1.0  0.448953047051665  0.3533299863528324  0.18122833614687991  1.0000
  H   H295      1.0  0.5008794097047984  0.36673133500638144  0.2444052137768646  1.0000
  H   H296      1.0  0.534324396466607  0.4052974565090057  0.2234418951008994  1.0000
  H   H297      1.0  0.3726704208688971  0.3343339549530251  0.20889211811869143  1.0000
  H   H298      1.0  0.4002483378786048  0.31558295865856895  0.20046488729059664  1.0000
  H   H299      1.0  0.4490160341166634  0.3611753964426267  0.26452076544733316  1.0000
  H   H300      1.0  0.42177898237875633  0.3798236303788577  0.27203427028094535  1.0000
  H   H301      1.0  0.49134188756035985  0.3195008775959167  0.22989035625941392  1.0000
  H   H302      1.0  0.5073315636398315  0.3084459182258027  0.26791183346931974  1.0000
  H   H303      1.0  0.44084955111635854  0.2958001557180734  0.3120286972496385  1.0000
  H   H304      1.0  0.4224091246855344  0.3047528998678617  0.2729130768106707  1.0000
  H   H305      1.0  0.40409574021789196  0.2761342396407224  0.22181232007889212  1.0000
  H   H306      1.0  0.3930818971551668  0.24319395134808713  0.18895814766496088  1.0000
  H   H307      1.0  0.46621765852601277  0.2937077694249408  0.14824166376389736  1.0000
  H   H308      1.0  0.4796059999311184  0.32564396541439866  0.18268253785699495  1.0000
  C   C485      1.0  0.4975189659765243  0.3392753764841185  0.34414102503450356  1.0000
  C   C486      1.0  0.523703940203908  0.35433907826076466  0.35203864398044604  1.0000
  C   C487      1.0  0.5334414581130886  0.3793423857878222  0.36265610123692915  1.0000
  C   C488      1.0  0.5160341772469803  0.3892222656746336  0.36596957044834405  1.0000
  C   C489      1.0  0.49052930399619676  0.37458267803026957  0.35577114676894844  1.0000
  C   C490      1.0  0.48149518362893556  0.3501118618956344  0.34512846989902946  1.0000
  H   H309      1.0  0.5358891500706828  0.34500495585279756  0.352657494494756  1.0000
  H   H310      1.0  0.5529014875910683  0.38909680590927315  0.3715295252258118  1.0000
  H   H311      1.0  0.4768423712412518  0.38089950857130767  0.35836294704204574  1.0000
  H   H312      1.0  0.4604672262129194  0.33909554722189034  0.33989055018543446  1.0000
  C   C491      1.0  0.4975805770443066  0.43190642891188347  0.3629839562115949  1.0000
  C   C492      1.0  0.5050355052273949  0.42599141297638304  0.38626359938312765  1.0000
  C   C493      1.0  0.49846054506130755  0.4342349087858118  0.4086780158167851  1.0000
  C   C494      1.0  0.4859705134519272  0.4490533039265894  0.4084820788200913  1.0000
  C   C495      1.0  0.47858050740252606  0.45459840104516525  0.3848978603170644  1.0000
  C   C496      1.0  0.48522515805238486  0.4467300157596229  0.36241166498362815  1.0000
  C   C497      1.0  0.5223180034735353  0.4121098169864636  0.38658563444700056  1.0000
  C   C498      1.0  0.5512619441551175  0.4383302041272106  0.38388713580936706  1.0000
  C   C499      1.0  0.562642409976597  0.4556506906516027  0.40440426132454454  1.0000
  C   C500      1.0  0.5859702267601105  0.47958251652861045  0.4008929151461717  1.0000
  C   C501      1.0  0.598864128426944  0.4868649503522599  0.37714573914094407  1.0000
  C   C502      1.0  0.5876212607446074  0.4699715002465446  0.35653161511255177  1.0000
  C   C503      1.0  0.5644123515015895  0.44594307908553393  0.3603184370684545  1.0000
  C   C504      1.0  0.4902204220737654  0.37604391655512587  0.41887061958538785  1.0000
  C   C505      1.0  0.48377710789756195  0.3657511060239527  0.44304264907849583  1.0000
  C   C506      1.0  0.5027256547384834  0.3734144455095519  0.46230461383267496  1.0000
  C   C507      1.0  0.5291476618192924  0.3889336606736956  0.45496570632284933  1.0000
  C   C508      1.0  0.5358319448954393  0.3978994628208529  0.42984891131102976  1.0000
  C   C509      1.0  0.5164234422937175  0.39481939802369553  0.41278299289603193  1.0000
  C   C510      1.0  0.4926205447242169  0.36833253597139026  0.49132268904599047  1.0000
  C   C511      1.0  0.4622345944612307  0.4245153799282688  0.4936448334523509  1.0000
  C   C512      1.0  0.4454106718958326  0.39747516870035726  0.49705142123645174  1.0000
  C   C513      1.0  0.45443352394290676  0.38026555791362254  0.49611053565826896  1.0000
  C   C514      1.0  0.4814457835740847  0.3889239549088818  0.4929173446032404  1.0000
  C   C515      1.0  0.4986844412095391  0.41647120893182893  0.4899608299204558  1.0000
  C   C516      1.0  0.48900303782886345  0.4339656248058402  0.49038568340833627  1.0000
  C   C517      1.0  0.5147699487734052  0.3744968492257126  0.012299587513805665  1.0000
  C   C518      1.0  0.530257233598796  0.36281411576238515  0.010929968507213839  1.0000
  C   C519      1.0  0.5476932505297896  0.36547428344796884  0.030167119600857075  1.0000
  C   C520      1.0  0.5497739024257765  0.38044201086975216  0.05186335904267268  1.0000
  C   C521      1.0  0.5347314438050236  0.3926848105429185  0.053314650797391325  1.0000
  C   C522      1.0  0.5170116116615335  0.38875099483585984  0.034471525623273463  1.0000
  C   C523      1.0  0.45619920325378027  0.3303543721879936  0.0198577116634967  1.0000
  C   C524      1.0  0.43940972445485826  0.30408297128348544  0.025413786500435798  1.0000
  C   C525      1.0  0.4386416235449808  0.28442245073812905  0.010202479658103503  1.0000
  C   C526      1.0  0.4568796474641414  0.2916327453219408  0.48968341417266176  1.0000
  C   C527      1.0  0.47302664517536125  0.3180050087941132  0.4837645648962995  1.0000
  C   C528      1.0  0.4719858106745101  0.338018445957271  0.49773817071001203  1.0000
  H   H313      1.0  0.504220702266158  0.4276912992578876  0.34481225474594945  1.0000
  H   H314      1.0  0.5043618276841673  0.4319924644930399  0.4277382236634774  1.0000
  H   H315      1.0  0.48167967886713337  0.45476961898371965  0.42738126913484725  1.0000
  H   H316      1.0  0.47989449638685916  0.4519477554547783  0.34391986842437405  1.0000
  H   H317      1.0  0.5525490196620271  0.45164463089021684  0.423115274523664  1.0000
  H   H318      1.0  0.5939168783156011  0.49297748730875857  0.41680649122417857  1.0000
  H   H319      1.0  0.5976760058696461  0.4758175448910387  0.3379835594156332  1.0000
  H   H320      1.0  0.5560566378798535  0.43401948715352134  0.3432292390102852  1.0000
  H   H321      1.0  0.47395402043245727  0.3711117501050185  0.40543050559435634  1.0000
  H   H322      1.0  0.4630344136657592  0.35405174785447013  0.44749488083505157  1.0000
  H   H323      1.0  0.5453988063765934  0.39588397962633837  0.46897423160131907  1.0000
  H   H324      1.0  0.5568127419310052  0.40959776126940256  0.42448101358972723  1.0000
  H   H325      1.0  0.42421716538377885  0.39021552977590174  0.4999536167518361  1.0000
  H   H326      1.0  0.4391072363867198  0.3597171668777757  0.49851997872652265  1.0000
  H   H327      1.0  0.5193609537505807  0.4234932682817098  0.4865251425823904  1.0000
  H   H328      1.0  0.5020130508218709  0.4548390357146197  0.48860285073544973  1.0000
  H   H329      1.0  0.5287471571594569  0.3515178770347855  0.4934585963069786  1.0000
  H   H330      1.0  0.5598427049358494  0.35662853261775046  0.027721593085687567  1.0000
  H   H331      1.0  0.5372040387491598  0.4058048831916611  0.06976404666239633  1.0000
  H   H332      1.0  0.5055567671961845  0.39817964917902166  0.03858697854194759  1.0000
  H   H333      1.0  0.45592286947939026  0.34430698507843027  0.03343538750511384  1.0000
  H   H334      1.0  0.42775657385914717  0.2992534541400741  0.04279341606601712  1.0000
  H   H335      1.0  0.4573776325055174  0.2760900128697169  0.47881182081155593  1.0000
  H   H336      1.0  0.4868497031729939  0.32246775272530326  0.4675328336949483  1.0000
  C   C529      1.0  0.3219700821507327  0.5098999263946803  0.3766044874372059  1.0000
  C   C530      1.0  0.3411895609902942  0.5313118563088014  0.3629354569549877  1.0000
  C   C531      1.0  0.3601312890925033  0.5292023009592441  0.34854863747498044  1.0000
  C   C532      1.0  0.36079315971754433  0.5054770493839558  0.34919464757299046  1.0000
  C   C533      1.0  0.3399435441332821  0.483527570357589  0.3625998420992647  1.0000
  C   C534      1.0  0.320573396708079  0.4860650169926148  0.37475181583480477  1.0000
  H   H337      1.0  0.3421068824481435  0.550279344889064  0.36477260879527446  1.0000
  H   H338      1.0  0.37512123590944824  0.5459921189601338  0.3373453091986802  1.0000
  H   H339      1.0  0.3387530376020737  0.46433121310819153  0.3637405446146698  1.0000
  H   H340      1.0  0.30461162430225036  0.46918429174934234  0.385699068036218  1.0000
  C   C535      1.0  0.4002020302889878  0.4937488311289759  0.3770118811927078  1.0000
  C   C536      1.0  0.39530058013600616  0.4887177187394419  0.3508649619705479  1.0000
  C   C537      1.0  0.40317077748369634  0.472535189763955  0.3386547891270791  1.0000
  C   C538      1.0  0.4149637156438149  0.46122886407928276  0.3523955985090762  1.0000
  C   C539      1.0  0.41940636252661256  0.4661270515283514  0.3783310609724279  1.0000
  C   C540      1.0  0.41170191598901695  0.481972787479939  0.3911018852222779  1.0000
  C   C541      1.0  0.38322620064182933  0.5029810086216705  0.3346953098176542  1.0000
  C   C542      1.0  0.41021284970839683  0.5293530226160202  0.326983928017084  1.0000
  C   C543      1.0  0.4240092875154219  0.5309329850384756  0.3037023448752869  1.0000
  C   C544      1.0  0.4480569364636782  0.5530907486806196  0.2987437808797505  1.0000
  C   C545      1.0  0.4605644226891635  0.5733445065890346  0.31675834475398823  1.0000
  C   C546      1.0  0.4474247333558406  0.5713593094799503  0.33955493532971165  1.0000
  C   C547      1.0  0.4225261127318441  0.5502603107205645  0.3445367789684196  1.0000
  C   C548      1.0  0.35088463154473026  0.4593788353869996  0.3092332000987903  1.0000
  C   C549      1.0  0.33482558444822486  0.4461338163309831  0.2888305328292062  1.0000
  C   C550      1.0  0.3322512600240173  0.45936330338056147  0.26857336332944415  1.0000
  C   C551      1.0  0.3462873959682743  0.4870810616622521  0.26966556658824187  1.0000
  C   C552      1.0  0.3626986504356379  0.5007288659469216  0.2900721137983546  1.0000
  C   C553      1.0  0.3651294132672755  0.4869664780288279  0.3104825409489959  1.0000
  C   C554      1.0  0.3182155677779049  0.44237768515667997  0.2431093136403159  1.0000
  C   C555      1.0  0.3662438891681749  0.40465813293025643  0.22694354142795078  1.0000
  C   C556      1.0  0.33873664852965757  0.3892628065626233  0.2273431753023954  1.0000
  C   C557      1.0  0.32420926101163733  0.401438131967758  0.2318109268210654  1.0000
  C   C558      1.0  0.3359145952116461  0.42922826047065415  0.23459090420979928  1.0000
  C   C559      1.0  0.3632103740733071  0.443770712602695  0.23276345222083394  1.0000
  C   C560      1.0  0.3786842414925351  0.43216995093131555  0.22945580292021203  1.0000
  C   C561      1.0  0.3171391471904007  0.4615372752553275  0.22228955276390855  1.0000
  C   C562      1.0  0.30082868759359155  0.47252463835695924  0.22660404663169928  1.0000
  C   C563      1.0  0.30187967218454415  0.4921337430944933  0.2111289038334229  1.0000
  C   C564      1.0  0.3187305529208008  0.5010647897722247  0.19002105737276778  1.0000
  C   C565      1.0  0.33560341154333134  0.4912414411686317  0.18586583506367563  1.0000
  C   C566      1.0  0.3339780382714364  0.47101160561829886  0.20089944062979856  1.0000
  C   C567      1.0  0.27131094259359034  0.40560569275581665  0.22744599372640303  1.0000
  C   C568      1.0  0.24471037795853615  0.3869927490264429  0.23072066353253196  1.0000
  C   C569      1.0  0.23242896102212837  0.38283357961166303  0.25490821278775444  1.0000
  C   C570      1.0  0.24709175114030202  0.39649331095748125  0.2753263998194529  1.0000
  C   C571      1.0  0.2740136158923351  0.41534138480345384  0.2721041092104599  1.0000
  C   C572      1.0  0.28698282124512214  0.420057758415131  0.24826963454333903  1.0000
  H   H341      1.0  0.39491041966475043  0.5066772193299912  0.3866826329602153  1.0000
  H   H342      1.0  0.4019922950701078  0.46954927067672986  0.3177147500942854  1.0000
  H   H343      1.0  0.4201883424694978  0.4483096035422874  0.3417412818175714  1.0000
  H   H344      1.0  0.4133466430285994  0.4838310372128268  0.41174122886410586  1.0000
  H   H345      1.0  0.4168208450132253  0.5148930831516219  0.28991691617721105  1.0000
  H   H346      1.0  0.45814473168078096  0.5540779405964419  0.280618638700448  1.0000
  H   H347      1.0  0.45558989470896344  0.5873178611875775  0.35383699641544697  1.0000
  H   H348      1.0  0.4128325420357315  0.5499213083935122  0.36262312174243616  1.0000
  H   H349      1.0  0.3515772472179705  0.44720343252894446  0.32411859193672116  1.0000
  H   H350      1.0  0.32456738455661155  0.4246314787440487  0.2889934903314069  1.0000
  H   H351      1.0  0.3459125956129722  0.49897534841715835  0.25351919407851964  1.0000
  H   H352      1.0  0.3741485370040329  0.5225222079106696  0.28932522524660126  1.0000
  H   H353      1.0  0.32825343430600157  0.36827862966706665  0.22447977919229695  1.0000
  H   H354      1.0  0.303064515856845  0.38771035695569595  0.2351631954377661  1.0000
  H   H355      1.0  0.37325662367134466  0.46489856890923587  0.23621659929127797  1.0000
  H   H356      1.0  0.39974018078057  0.44369577623843104  0.22938402402043315  1.0000
  H   H357      1.0  0.2873144666727461  0.46611423347132025  0.24329555078568818  1.0000
  H   H358      1.0  0.2892432608276324  0.5002622622011519  0.2152494006747842  1.0000
  H   H359      1.0  0.35047802741961065  0.4986622872606769  0.16996700275967738  1.0000
  H   H360      1.0  0.3463782250920761  0.4630577176305334  0.19517264840960158  1.0000
  H   H361      1.0  0.28027962937511236  0.40797717685986046  0.2079415326891872  1.0000
  H   H362      1.0  0.23291955416431304  0.3759739671282873  0.21440745358008043  1.0000
  H   H363      1.0  0.23748359309851988  0.3932315583467599  0.2938725155461073  1.0000
  H   H364      1.0  0.2839267593916205  0.42627935628632346  0.2887451741375772  1.0000
  C   C573      1.0  0.3256644841706277  0.5075860145318961  0.125583781062071  1.0000
  C   C574      1.0  0.3454191866410073  0.5294695125442581  0.11223406968535558  1.0000
  C   C575      1.0  0.3654154342929422  0.5280906485751993  0.10006929214607117  1.0000
  C   C576      1.0  0.36683016443504973  0.505139940585815  0.10044855633274072  1.0000
  C   C577      1.0  0.3456432930212381  0.48266708599665953  0.11165207860606724  1.0000
  C   C578      1.0  0.3250874425116574  0.48354075296163074  0.12403665477629623  1.0000
  H   H365      1.0  0.3444888194283614  0.5477772814726717  0.11210370368359499  1.0000
  H   H366      1.0  0.3810670732064696  0.5461182999953356  0.09088353294463722  1.0000
  H   H367      1.0  0.3455521036732021  0.4638542459858588  0.111339355399463  1.0000
  H   H368      1.0  0.3097878147115923  0.46583079728325194  0.1336451334983199  1.0000
  C   C579      1.0  0.4011376616193755  0.484426636972022  0.1263659770726345  1.0000
  C   C580      1.0  0.40095598245358516  0.48625231881100744  0.0998256318808758  1.0000
  C   C581      1.0  0.4155160099850323  0.47728585073303104  0.0858692918025155  1.0000
  C   C582      1.0  0.4294003530116904  0.4672395341958072  0.0978111667584325  1.0000
  C   C583      1.0  0.42965899888114745  0.4661627543720219  0.12399688538587816  1.0000
  C   C584      1.0  0.4156490072173493  0.4749942656395261  0.1383771089669868  1.0000
  C   C585      1.0  0.3899318298009382  0.5029750531984379  0.08590498725537853  1.0000
  C   C586      1.0  0.4177443539198755  0.5298473952003171  0.08074330837317044  1.0000
  C   C587      1.0  0.4331249871309393  0.5332484983544148  0.05852890287376178  1.0000
  C   C588      1.0  0.45656752050004334  0.556078764840404  0.05403476775949741  1.0000
  C   C589      1.0  0.4669349185871444  0.5756112557316126  0.0724920328480471  1.0000
  C   C590      1.0  0.45364803976580353  0.5717591876095608  0.09542694330361469  1.0000
  C   C591      1.0  0.42956389469614137  0.5493519942635654  0.09981632002360717  1.0000
  C   C592      1.0  0.36300840955954927  0.4627505738652177  0.05552447092544907  1.0000
  C   C593      1.0  0.35229106125555393  0.45214196619218616  0.03191658478519776  1.0000
  C   C594      1.0  0.3531709248658776  0.4682067750240924  0.011160824968664884  1.0000
  C   C595      1.0  0.36349053478442045  0.4949403065251637  0.016980735761548127  1.0000
  C   C596      1.0  0.3734856659072464  0.5058041330627848  0.04053664865756346  1.0000
  C   C597      1.0  0.37548678219601406  0.4900336453731136  0.05972935647330715  1.0000
  C   C598      1.0  0.3477721194299688  0.45822009782070594  0.4813842213820103  1.0000
  C   C599      1.0  0.41872577990331494  0.4524924888774007  0.4716281109228738  1.0000
  C   C600      1.0  0.39464410997407995  0.4302538863039469  0.477546960199236  1.0000
  C   C601      1.0  0.37233236637990386  0.43217816966380806  0.47816193077301733  1.0000
  C   C602      1.0  0.37369436512503473  0.4565107830224698  0.4752791349602759  1.0000
  C   C603      1.0  0.3983730398600299  0.47893414467892464  0.47144575371803016  1.0000
  C   C604      1.0  0.4209644376430948  0.47714701250270475  0.4684737192731311  1.0000
  C   C605      1.0  0.34128385366009195  0.477151637008006  0.4645336396663492  1.0000
  C   C606      1.0  0.3209095466833355  0.48155775559107633  0.47224308149665506  1.0000
  C   C607      1.0  0.3155848196660839  0.49902945594323206  0.4591948414990111  1.0000
  C   C608      1.0  0.33010146160180687  0.5116556659507977  0.43740315552019216  1.0000
  C   C609      1.0  0.3507559316765684  0.5076361010264709  0.429784892292308  1.0000
  C   C610      1.0  0.3553045785774626  0.48973110662356  0.4423927590399573  1.0000
  C   C611      1.0  0.3180139764295012  0.41863423554907936  0.4514640599957978  1.0000
  C   C612      1.0  0.29670944391249177  0.39392874243541065  0.4468624505288916  1.0000
  C   C613      1.0  0.27753223192617577  0.3802168583436548  0.4658217799218407  1.0000
  C   C614      1.0  0.2791223548830647  0.3928390434616346  0.48893458565064407  1.0000
  C   C615      1.0  0.30111555643343796  0.41797123426879496  0.4941686254237103  1.0000
  C   C616      1.0  0.32101421898244276  0.43034873069778634  0.47594842470145743  1.0000
  H   H369      1.0  0.39101931761890263  0.49079730779309827  0.13893368643581283  1.0000
  H   H370      1.0  0.4170811137305796  0.4786318681539788  0.06528232735782342  1.0000
  H   H371      1.0  0.44071182233023637  0.46163405714041766  0.0847827144574842  1.0000
  H   H372      1.0  0.41601513697290515  0.474318578931438  0.15886067299659198  1.0000
  H   H373      1.0  0.426834831506305  0.5183935905969327  0.04333078782922667  1.0000
  H   H374      1.0  0.4660805390455472  0.5572250636517547  0.03603999158195549  1.0000
  H   H375      1.0  0.46306588889048395  0.5873095557590525  0.1095225732469513  1.0000
  H   H376      1.0  0.419290607280759  0.5473648910436422  0.11822081792096806  1.0000
  H   H377      1.0  0.3614464323750791  0.4491434118706354  0.0704201446057807  1.0000
  H   H378      1.0  0.34447850633303356  0.43114724140219307  0.027986787020816608  1.0000
  H   H379      1.0  0.36732407665249167  0.510114099492654  0.0023009807716324326  1.0000
  H   H380      1.0  0.38143252563395125  0.5268871437580905  0.04367164060466319  1.0000
  H   H381      1.0  0.3932589390650074  0.4112948282464802  0.4805558540791565  1.0000
  H   H382      1.0  0.3541158754285815  0.41459534957033617  0.48355698807802  1.0000
  H   H383      1.0  0.4000236219650392  0.4983417940302808  0.46970560039095804  1.0000
  H   H384      1.0  0.44017849843144896  0.4942368052832397  0.46448126046921323  1.0000
  H   H385      1.0  0.30862397787260515  0.4712759238432272  0.48924110095240253  1.0000
  H   H386      1.0  0.29996861147523063  0.502067853827574  0.466219473826021  1.0000
  H   H387      1.0  0.362249886241662  0.5178286907579343  0.41263361518568137  1.0000
  H   H388      1.0  0.37128920672435645  0.4871170785535062  0.4348579145334379  1.0000
  H   H389      1.0  0.3329840538502051  0.4276923214211818  0.43677266518429636  1.0000
  H   H390      1.0  0.29420967574145973  0.3852140744939448  0.4277459835445346  1.0000
  H   H391      1.0  0.2632073312699402  0.3834208762184077  0.0027394140513629095  1.0000
  H   H392      1.0  0.301515048196961  0.42830669563957446  0.011529419318880851  1.0000
  C   C617      1.0  0.6137196636378843  0.7775102372992136  0.22723065702706638  1.0000
  C   C618      1.0  0.5899655804876635  0.7638463925464664  0.2405213933077472  1.0000
  C   C619      1.0  0.5819343885647866  0.739665268819357  0.25215151504219213  1.0000
  C   C620      1.0  0.5988380454111265  0.7289014625277143  0.25088471445960786  1.0000
  C   C621      1.0  0.6223798167091519  0.7430970057318298  0.23656967387937952  1.0000
  C   C622      1.0  0.6297084118129669  0.7666231424741499  0.22460975720000464  1.0000
  H   H393      1.0  0.5777344130495924  0.7728403332520938  0.24276981884406443  1.0000
  H   H394      1.0  0.5641893847654177  0.7314800943058715  0.2644994257744259  1.0000
  H   H395      1.0  0.6366608512649207  0.7365808387821003  0.23707406614809606  1.0000
  H   H396      1.0  0.6488249885314484  0.7776526853126473  0.21511166278601931  1.0000
  C   C623      1.0  0.6016424408394127  0.6806659590221393  0.23264317406444773  1.0000
  C   C624      1.0  0.603994534890217  0.6865510884113782  0.25861355599255675  1.0000
  C   C625      1.0  0.6141343713847374  0.6741774062445777  0.2737705436674888  1.0000
  C   C626      1.0  0.626064186362281  0.6608878608438474  0.2629261098900832  1.0000
  C   C627      1.0  0.6267138211369014  0.6587352388248628  0.23644163584193612  1.0000
  C   C628      1.0  0.6128831662476262  0.6671415440805057  0.2216648823388057  1.0000
  C   C629      1.0  0.5949728915709884  0.7061224288660861  0.27053467326664576  1.0000
  C   C630      1.0  0.5653077511413236  0.6851403023202661  0.280123946283053  1.0000
  C   C631      1.0  0.5602563921396233  0.6739963709485561  0.30481394783672766  1.0000
  C   C632      1.0  0.5352614709542  0.6553828826776471  0.3132469985756154  1.0000
  C   C633      1.0  0.5143918189433591  0.6455676071829641  0.2959676834315452  1.0000
  C   C634      1.0  0.5185130720572273  0.6557470833115994  0.27107010505959095  1.0000
  C   C635      1.0  0.54385705906413  0.6749830830191125  0.26314532652994843  1.0000
  C   C636      1.0  0.6415303038937649  0.735873339789221  0.2918219669767481  1.0000
  C   C637      1.0  0.6580530402108741  0.7540528016501148  0.3093651180767623  1.0000
  C   C638      1.0  0.6483727969759648  0.7638952382128495  0.3287512409278562  1.0000
  C   C639      1.0  0.6215693171253085  0.7562634170228956  0.32769201716355145  1.0000
  C   C640      1.0  0.6048844476445417  0.7371163419896648  0.3109287341097836  1.0000
  C   C641      1.0  0.6144317608043283  0.7258421841823584  0.2927880721683667  1.0000
  C   C642      1.0  0.668442509297687  0.7837902351628634  0.34983095781967904  1.0000
  C   C643      1.0  0.7242448306967826  0.7553863490602567  0.36999306877649063  1.0000
  C   C644      1.0  0.7330614397786585  0.7823533365106644  0.3689066854284858  1.0000
  C   C645      1.0  0.7160605802722722  0.7916295023255553  0.36396364119506364  1.0000
  C   C646      1.0  0.6886177047265953  0.7739501275241861  0.35964526738674435  1.0000
  C   C647      1.0  0.6797866374818751  0.7467013168098362  0.36280935888780846  1.0000
  C   C648      1.0  0.6974210424485137  0.7378637186014433  0.36654380164657524  1.0000
  C   C649      1.0  0.6499839046207039  0.7827643686415089  0.37443754065198903  1.0000
  C   C650      1.0  0.640978089097707  0.8005652462498335  0.3763037920462403  1.0000
  C   C651      1.0  0.6217607878106893  0.7980174755882788  0.393567587428196  1.0000
  C   C652      1.0  0.6107489862283296  0.7769019950511417  0.41056172694341486  1.0000
  C   C653      1.0  0.6201469153007988  0.7596415341982071  0.4099331765777835  1.0000
  C   C654      1.0  0.6388032178831948  0.7619565199244226  0.3918836932387886  1.0000
  C   C655      1.0  0.6987880272971798  0.834763116501081  0.3551193167601455  1.0000
  C   C656      1.0  0.7164823294631042  0.8602074341918597  0.3463060318494561  1.0000
  C   C657      1.0  0.7224332268953664  0.865333032974379  0.3204617479885262  1.0000
  C   C658      1.0  0.7112559469241541  0.8443037009884451  0.3036596655294725  1.0000
  C   C659      1.0  0.6928489483497215  0.8190690374952533  0.31238565177826866  1.0000
  C   C660      1.0  0.68660343437322  0.8136396299800445  0.33845303221959244  1.0000
  H   H397      1.0  0.5913127183711135  0.6869789249709515  0.2196085138586537  1.0000
  H   H398      1.0  0.6139640182149846  0.6754129262000501  0.2952169149392633  1.0000
  H   H399      1.0  0.6346400090639555  0.6522827662259408  0.27626340545710715  1.0000
  H   H400      1.0  0.611243966047833  0.6633661806347694  0.2006627642575547  1.0000
  H   H401      1.0  0.5762323746898209  0.6801312459673927  0.3181609432550731  1.0000
  H   H402      1.0  0.5328820301989444  0.6475521240376962  0.33261760166459486  1.0000
  H   H403      1.0  0.5026202102493859  0.6476895504289073  0.25659986685821917  1.0000
  H   H404      1.0  0.5466668019260448  0.6813752311501231  0.24343328867445307  1.0000
  H   H405      1.0  0.6506481012654233  0.7288400240439041  0.2782014357511372  1.0000
  H   H406      1.0  0.6793860943313207  0.7608650120839313  0.30857167023866594  1.0000
  H   H407      1.0  0.6119934135440941  0.7637263253103787  0.3404162821270583  1.0000
  H   H408      1.0  0.5843131281602658  0.7310659756597919  0.31168532251285835  1.0000
  H   H409      1.0  0.7531673135286195  0.7974071870065559  0.3724025118447442  1.0000
  H   H410      1.0  0.7250527488251063  0.8128345790979963  0.3625998420992647  1.0000
  H   H411      1.0  0.6590891840094758  0.7323119731367905  0.36040767570061205  1.0000
  H   H412      1.0  0.6905209783482744  0.7166804621735998  0.36731978975229296  1.0000
  H   H413      1.0  0.6476719771881145  0.8159968818865062  0.3620566504252623  1.0000
  H   H414      1.0  0.6149038795513582  0.8118340249141873  0.39300887599207934  1.0000
  H   H415      1.0  0.6118569774829977  0.7429713206403004  0.4223955455556107  1.0000
  H   H416      1.0  0.6433394322615837  0.7460379688253104  0.39190503291169576  1.0000
  H   H417      1.0  0.6962054420646149  0.8314139149990212  0.3760690556442607  1.0000
  H   H418      1.0  0.7259386004743891  0.8764956961349385  0.35974808581075196  1.0000
  H   H419      1.0  0.7166658575178403  0.8481252151139519  0.2834199557620891  1.0000
  H   H420      1.0  0.6860890400387352  0.8042144970486371  0.29769619693703153  1.0000
  C   C661      1.0  0.6017256830318102  0.7707361997427924  0.476716652926118  1.0000
  C   C662      1.0  0.5813864720963263  0.7568826898247003  0.49444410120124016  1.0000
  C   C663      1.0  0.5819760707352748  0.7384409331625097  0.010906688864042335  1.0000
  C   C664      1.0  0.6020148032076309  0.7323166628676808  0.008584544457681975  1.0000
  C   C665      1.0  0.6234028746411958  0.7483030829536979  0.4923295336131592  1.0000
  C   C666      1.0  0.6233192599696069  0.7674081279139295  0.4767185928963823  1.0000
  H   H421      1.0  0.5649771192561541  0.760516557035379  0.4954684055007876  1.0000
  H   H422      1.0  0.5656855378216644  0.7279693279856125  0.024211604886499725  1.0000
  H   H423      1.0  0.6406231060413516  0.7462262717070776  0.4920210783411364  1.0000
  H   H424      1.0  0.6406622329608177  0.7805804492709731  0.4649837127676655  1.0000
  C   C667      1.0  0.6099554292376497  0.6868111185342929  0.4878152228081461  1.0000
  C   C668      1.0  0.612224749804823  0.6932005248472471  0.013853503695505528  1.0000
  C   C669      1.0  0.6242314992637031  0.6828612286050775  0.029433034852848074  1.0000
  C   C670      1.0  0.6338835706458537  0.6674257348847835  0.019380478978480272  1.0000
  C   C671      1.0  0.6326048972710531  0.6626843674228681  0.4930434426704195  1.0000
  C   C672      1.0  0.6205941671992752  0.6725208925107417  0.47749070106157143  1.0000
  C   C673      1.0  0.6019400622169566  0.7107602230023435  0.02747715683238647  1.0000
  C   C674      1.0  0.5734417111965824  0.6871385927228666  0.03625047835563142  1.0000
  C   C675      1.0  0.568304041671571  0.675144605125243  0.06050204662957562  1.0000
  C   C676      1.0  0.5426999127236328  0.655594545373781  0.06811429594964037  1.0000
  C   C677      1.0  0.522745103808657  0.6459016581158761  0.050600050406564186  1.0000
  C   C678      1.0  0.5281332184567744  0.6560733466608492  0.025643496938575414  1.0000
  C   C679      1.0  0.5527053874211166  0.675889792343741  0.018344534857347106  1.0000
  C   C680      1.0  0.6483384679475666  0.744541129067237  0.046262664889654775  1.0000
  C   C681      1.0  0.664276556630429  0.7643141545390532  0.0630824010781136  1.0000
  C   C682      1.0  0.6541706956941777  0.7676457611762221  0.0862922053201317  1.0000
  C   C683      1.0  0.6269257086239307  0.7513266448909671  0.09060359523549953  1.0000
  C   C684      1.0  0.6105925537455265  0.7347262131560359  0.07189335802448586  1.0000
  C   C685      1.0  0.6209572372799615  0.7301028141868625  0.04982095834842356  1.0000
  C   C686      1.0  0.6732603089656296  0.7873066424400327  0.1082493707624949  1.0000
  C   C687      1.0  0.6956113465279399  0.7295657719191995  0.13170244727565553  1.0000
  C   C688      1.0  0.7114461379915418  0.7492206826058753  0.11437463287497801  1.0000
  C   C689      1.0  0.7061505510034982  0.76912150807769  0.10869129598870117  1.0000
  C   C690      1.0  0.6840801626066463  0.7688308397186925  0.11914637773406292  1.0000
  C   C691      1.0  0.6682312104206276  0.7484623900383135  0.13699449215962417  1.0000
  C   C692      1.0  0.673977820171521  0.7291738681443448  0.14326040211626864  1.0000
  C   C693      1.0  0.6600015570245025  0.7972583353956708  0.12963618494715556  1.0000
  C   C694      1.0  0.6372764183633088  0.798596075706175  0.12535467057385785  1.0000
  C   C695      1.0  0.6243257397901054  0.8034826616047436  0.14556508679025038  1.0000
  C   C696      1.0  0.634536342955393  0.8090600970856614  0.1698558424635333  1.0000
  C   C697      1.0  0.6590661721733457  0.8108611776923631  0.17345448730379942  1.0000
  C   C698      1.0  0.6711778969118953  0.8044732612592106  0.1538089904283694  1.0000
  C   C699      1.0  0.7201561967437518  0.8292756791491864  0.1093980271559836  1.0000
  C   C700      1.0  0.7393876234826345  0.8537703213879245  0.10074381980696633  1.0000
  C   C701      1.0  0.7347286240596573  0.8657445814512664  0.08016674921062214  1.0000
  C   C702      1.0  0.710252940271526  0.8530865094762489  0.06827531348157681  1.0000
  C   C703      1.0  0.6911922911176145  0.8275605437590108  0.0764313364667233  1.0000
  C   C704      1.0  0.6960073165795349  0.8158213033778062  0.09709531773090785  1.0000
  H   H425      1.0  0.6007989805671723  0.6939479239873109  0.4746874440296661  1.0000
  H   H426      1.0  0.6256247653912481  0.6861774002198068  0.050610526245991376  1.0000
  H   H427      1.0  0.6443489133248452  0.6616462952003065  0.0326318518216431  1.0000
  H   H428      1.0  0.6199776949406273  0.669730243703397  0.4572199517699594  1.0000
  H   H429      1.0  0.5843955924437162  0.6810267212522895  0.07369733637325321  1.0000
  H   H430      1.0  0.5383707909887994  0.6490652714266231  0.08830492446933712  1.0000
  H   H431      1.0  0.5122937651243559  0.6483440517932165  0.011475100151480677  1.0000
  H   H432      1.0  0.5550170005008429  0.6835059470422886  0.4993619258212263  1.0000
  H   H433      1.0  0.6568833192516312  0.7403874823944069  0.02944195871606383  1.0000
  H   H434      1.0  0.6848166530715124  0.776458003541636  0.05806350400735757  1.0000
  H   H435      1.0  0.6180872999797241  0.7513585217884028  0.10869420594409758  1.0000
  H   H436      1.0  0.5895592500512662  0.7243112028726661  0.07628894264932408  1.0000
  H   H437      1.0  0.7274696825834169  0.7479573326850169  0.10537142487541418  1.0000
  H   H438      1.0  0.7176852623726621  0.7828616613742793  0.09336281494240546  1.0000
  H   H439      1.0  0.6507097624250855  0.7457935511115439  0.14659831495301354  1.0000
  H   H440      1.0  0.660326630461851  0.7133180233120726  0.1560969913580782  1.0000
  H   H441      1.0  0.6283654284240813  0.7952877928729517  0.10607505209027374  1.0000
  H   H442      1.0  0.6048034479904336  0.8004537439445619  0.14181124432884074  1.0000
  H   H443      1.0  0.6688901011015742  0.8167052272006144  0.1923175941716395  1.0000
  H   H444      1.0  0.689040029249673  0.8040730416692926  0.15861449077005305  1.0000
  H   H445      1.0  0.7236248267477896  0.8216654122205208  0.12653960441128884  1.0000
  H   H446      1.0  0.7575654189959462  0.8647235663290614  0.11260906593744369  1.0000
  H   H447      1.0  0.7060368299773238  0.8619595192548065  0.05222108955940858  1.0000
  H   H448      1.0  0.6719999889267448  0.8186693142586782  0.06763046736572535  1.0000
  C   C705      1.0  0.8873388760919773  0.3441614678518175  0.09639518246252402  1.0000
  C   C706      1.0  0.8844797173934981  0.3623910390328837  0.08143490777239136  1.0000
  C   C707      1.0  0.9048690157398288  0.38047298055306733  0.06587304830330107  1.0000
  C   C708      1.0  0.9297795871106236  0.38215096798846293  0.06618596550693176  1.0000
  C   C709      1.0  0.9313228525377087  0.3619505939012277  0.07948950559135697  1.0000
  C   C710      1.0  0.9102314607441737  0.3431146330626429  0.09451205332697346  1.0000
  H   H449      1.0  0.8659564965304665  0.36252764498491447  0.08236589950222627  1.0000
  H   H450      1.0  0.902179056815344  0.3942847738849342  0.053707688772937356  1.0000
  H   H451      1.0  0.9492623230705904  0.36140501960832144  0.07986450184344508  1.0000
  H   H452      1.0  0.9121576895271203  0.3282931579163969  0.10564728864699684  1.0000
  C   C711      1.0  0.9856343818664397  0.41932332442711245  0.09071591951380219  1.0000
  C   C712      1.0  0.9828511500833154  0.41901939061234245  0.06416703845288058  1.0000
  C   C713      1.0  0.0063527966291831535  0.4335065939986575  0.049686518409107955  1.0000
  C   C714      1.0  0.03048066201784195  0.44744393380490505  0.06123923533000748  1.0000
  C   C715      1.0  0.0323431605478412  0.4462880993729058  0.08782730379026785  1.0000
  C   C716      1.0  0.009516272789327589  0.4325217969802057  0.10260308730826607  1.0000
  C   C717      1.0  0.9549470629474179  0.40447793989863734  0.05071703061350114  1.0000
  C   C718      1.0  0.9524744301382899  0.42978314521701866  0.04362702128858442  1.0000
  C   C719      1.0  0.9591613955627097  0.44181526975874713  0.019355259365044453  1.0000
  C   C720      1.0  0.9560294480789545  0.46319842586546184  0.013436410088682236  1.0000
  C   C721      1.0  0.9478867321132058  0.47421970691564747  0.032027745081341825  1.0000
  C   C722      1.0  0.942922760614789  0.4637894864167354  0.056767215876756046  1.0000
  C   C723      1.0  0.9454309798285497  0.4424254853142854  0.06230815894563369  1.0000
  C   C724      1.0  0.9709284273661889  0.3755548533569377  0.026220056101123705  1.0000
  C   C725      1.0  0.9711020674814449  0.3604922983016781  0.006175101389428339  1.0000
  C   C726      1.0  0.9529063194654869  0.35376740577478305  0.48590047215728766  1.0000
  C   C727      1.0  0.9351594024716546  0.36302754749489297  0.4878385024513177  1.0000
  C   C728      1.0  0.9361734740338938  0.3792965950825189  0.007288644321133296  1.0000
  C   C729      1.0  0.9549213228500459  0.3867740376985017  0.026633463764444844  1.0000
  C   C730      1.0  0.9565045557950136  0.33912997541130885  0.46068667863225343  1.0000
  C   C731      1.0  0.04451124458918516  0.3811564301839409  0.4494930502072748  1.0000
  C   C732      1.0  0.029256308304161337  0.35438885729171404  0.4468352909451914  1.0000
  C   C733      1.0  0.0024490139293887173  0.3414141373286659  0.4472873040167721  1.0000
  C   C734      1.0  0.9886019718843045  0.35462707982864167  0.4527793598349895  1.0000
  C   C735      1.0  0.004319252055280092  0.38233811766940434  0.45410241955523817  1.0000
  C   C736      1.0  0.03201040041320386  0.3956643769215776  0.45284337885371123  1.0000
  C   C737      1.0  0.9379627635167013  0.3399067982218846  0.43788426814573717  1.0000
  C   C738      1.0  0.9111442332013435  0.3210551803607012  0.4372266182261414  1.0000
  C   C739      1.0  0.894238577631323  0.32093096551301153  0.41870378214265846  1.0000
  C   C740      1.0  0.9038902047334854  0.342538407554064  0.40251085034659323  1.0000
  C   C741      1.0  0.9301037930908739  0.3626860819752597  0.40319177990936056  1.0000
  C   C742      1.0  0.9470009243065984  0.3608275631563407  0.42067091199065304  1.0000
  C   C743      1.0  0.943661233553645  0.2917508242993191  0.4452794347932273  1.0000
  C   C744      1.0  0.9375326240786971  0.26603596613290054  0.448901359276665  1.0000
  C   C745      1.0  0.9336505443548274  0.25582991343993033  0.47337990407153163  1.0000
  C   C746      1.0  0.9361855422079834  0.2715880803479956  0.4942035448884676  1.0000
  C   C747      1.0  0.942907193014897  0.29758421091654264  0.49054670094027275  1.0000
  C   C748      1.0  0.9474985723326531  0.308508399972644  0.4659808574835128  1.0000
  H   H453      1.0  0.9684230062988977  0.41134565125963424  0.1036497012658529  1.0000
  H   H454      1.0  0.005089927685122925  0.43457770085661435  0.029015747248998348  1.0000
  H   H455      1.0  0.04818681371173486  0.45900884176705753  0.04957031419027672  1.0000
  H   H456      1.0  0.010563309251222218  0.4314942837060899  0.12335999314811034  1.0000
  H   H457      1.0  0.9667568890938584  0.4346241499499415  0.003949955496282631  1.0000
  H   H458      1.0  0.9605841198570885  0.47190851241607445  0.49470405721665556  1.0000
  H   H459      1.0  0.9372847967674902  0.47255065014286096  0.07194476723648965  1.0000
  H   H460      1.0  0.9405413778604425  0.43500935520766265  0.08172047139529552  1.0000
  H   H461      1.0  0.9845982100121775  0.3786929551925828  0.04197339063529988  1.0000
  H   H462      1.0  0.986558862622748  0.3553314310436678  0.005013059201115942  1.0000
  H   H463      1.0  0.9216244327423513  0.35973050505904886  0.47252631715524207  1.0000
  H   H464      1.0  0.9215828216360104  0.38562320962050534  0.006821111487438358  1.0000
  H   H465      1.0  0.038856253721468524  0.34257723781120164  0.44399129453773595  1.0000
  H   H466      1.0  0.9930055687852201  0.3199880512767445  0.4473008838086221  1.0000
  H   H467      1.0  0.9955358613079939  0.394033308170442  0.45905904358051036  1.0000
  H   H468      1.0  0.04320429855330089  0.4170826606158921  0.455893012109182  1.0000
  H   H469      1.0  0.9023580374613361  0.30481425044629296  0.45075985078985903  1.0000
  H   H470      1.0  0.8742868669945801  0.30416109372900585  0.41743504158980993  1.0000
  H   H471      1.0  0.9365800907081431  0.37984832647749606  0.39026187809783847  1.0000
  H   H472      1.0  0.9675368340417698  0.37702840664852283  0.4209192281844827  1.0000
  H   H473      1.0  0.9448333367012456  0.2990848913428434  0.42596315087164816  1.0000
  H   H474      1.0  0.9339269685708012  0.25409404931633905  0.4319304994046177  1.0000
  H   H475      1.0  0.9330046571182923  0.2648020128822578  0.014257017510478807  1.0000
  H   H476      1.0  0.9439736144825466  0.3083152345362057  0.008299368828830644  1.0000
  C   C749      1.0  0.9086607868932818  0.35778304516106024  0.34073831719093123  1.0000
  C   C750      1.0  0.9087277620469645  0.3777092358155787  0.3271236058761132  1.0000
  C   C751      1.0  0.9304739468332238  0.3952807477235411  0.3134177159588733  1.0000
  C   C752      1.0  0.9536232611294926  0.3935376993545132  0.31287258431460657  1.0000
  C   C753      1.0  0.9530848106491697  0.37264499116319655  0.3263010584840524  1.0000
  C   C754      1.0  0.9306453433065903  0.3551426753234249  0.3401931855466645  1.0000
  H   H477      1.0  0.891471373569331  0.3801015707194089  0.32853396425825515  1.0000
  H   H478      1.0  0.9280270950375847  0.4096658744764104  0.302173648307023  1.0000
  H   H479      1.0  0.969268865230663  0.36895213018253875  0.3256414685941923  1.0000
  H   H480      1.0  0.931136602271208  0.3389117353384103  0.3493556651049269  1.0000
  C   C755      1.0  0.010529092175562976  0.428657023505347  0.33464681056104684  1.0000
  C   C756      1.0  0.007205919292867203  0.4226546237565121  0.30855809044681587  1.0000
  C   C757      1.0  0.029453854128241197  0.4293329582349564  0.29350974110668426  1.0000
  C   C758      1.0  0.05458476806764201  0.44174797907333596  0.30408451901735295  1.0000
  C   C759      1.0  0.05777022033711833  0.44725661810511963  0.32993462278907576  1.0000
  C   C760      1.0  0.03521839003532611  0.4405424118853729  0.3455998826732529  1.0000
  C   C761      1.0  0.9792853382049505  0.4125644539922477  0.2955544697652505  1.0000
  C   C762      1.0  0.9828689872148921  0.4403549009490012  0.28638811026645955  1.0000
  C   C763      1.0  0.9952720336999915  0.452820413238802  0.26309294733281247  1.0000
  C   C764      1.0  0.9980459197532435  0.4766246422582425  0.2558335786038229  1.0000
  C   C765      1.0  0.9886070909411456  0.4891015197321506  0.2720071106972452  1.0000
  C   C766      1.0  0.9776683337441596  0.47803677447412013  0.295630128605558  1.0000
  C   C767      1.0  0.9753483748581625  0.45400373871128236  0.3027304197728755  1.0000
  C   C768      1.0  0.984233227500065  0.3777054291349645  0.26720956423364517  1.0000
  C   C769      1.0  0.9811985136773279  0.3648234780510019  0.24426553591783542  1.0000
  C   C770      1.0  0.9663645958432806  0.3663259606262602  0.22463497681344047  1.0000
  C   C771      1.0  0.9521124714625945  0.3792280054009158  0.23007271346425762  1.0000
  C   C772      1.0  0.9544156550010497  0.39144925043755324  0.2532281985388755  1.0000
  C   C773      1.0  0.9722332049785738  0.3928787698936484  0.2713766203613495  1.0000
  C   C774      1.0  0.9700087392327691  0.3594388302014769  0.19523278748779468  1.0000
  C   C775      1.0  0.04942256652794707  0.4278910931350644  0.19754135210230497  1.0000
  C   C776      1.0  0.04631288011414488  0.4030817185213924  0.19487001304837162  1.0000
  C   C777      1.0  0.0213728484988795  0.38153658382842937  0.190956705031237  1.0000
  C   C778      1.0  0.9990858323105455  0.38383250385067463  0.18884504739855248  1.0000
  C   C779      1.0  0.004052902554753245  0.4100418878028122  0.18771656669581246  1.0000
  C   C780      1.0  0.02840536897857656  0.43122469341872477  0.1933166788577511  1.0000
  C   C781      1.0  0.945038182721065  0.35519904245591344  0.179783252297007  1.0000
  C   C782      1.0  0.9193503245298987  0.33552239791170135  0.18769561501695808  1.0000
  C   C783      1.0  0.8976305468902971  0.3332181127594986  0.17496456015752615  1.0000
  C   C784      1.0  0.90055499105996  0.35131217107274276  0.1562374452052131  1.0000
  C   C785      1.0  0.9259737086718723  0.3709088291636393  0.14964232229471788  1.0000
  C   C786      1.0  0.9475826517073811  0.37142865991154084  0.1598110644290698  1.0000
  C   C787      1.0  0.970624516449697  0.32351243445313016  0.16456748352306674  1.0000
  C   C788      1.0  0.9620058879651238  0.2972798221021549  0.1579948642676374  1.0000
  C   C789      1.0  0.9522163889075461  0.2783731819144836  0.17703606040573971  1.0000
  C   C790      1.0  0.9508842057950526  0.2854923680741062  0.20184032620798137  1.0000
  C   C791      1.0  0.9575368825275717  0.3107592880446522  0.20796869227288736  1.0000
  C   C792      1.0  0.9675671151489978  0.33091757041827263  0.18974480560713228  1.0000
  H   H481      1.0  0.993246483921704  0.4237404033944622  0.34689772278006586  1.0000
  H   H482      1.0  0.02854402525554119  0.42649964768887233  0.27223796715869625  1.0000
  H   H483      1.0  0.0723909211549106  0.44925293765595087  0.29243693755052946  1.0000
  H   H484      1.0  0.038365684397348776  0.4461165589634288  0.3659307710430582  1.0000
  H   H485      1.0  0.001325535953950935  0.4433207644836467  0.24937735756425114  1.0000
  H   H486      1.0  0.007134779150658675  0.4858668665628337  0.2371865844234252  1.0000
  H   H487      1.0  0.9711293318548468  0.48824821259687085  0.3081254770778782  1.0000
  H   H488      1.0  0.9685883723252309  0.4468166666174776  0.32222324098850547  1.0000
  H   H489      1.0  0.9976142466817011  0.37756068807862925  0.2806690779273197  1.0000
  H   H490      1.0  0.9933030706309506  0.356206138067634  0.24023233773836739  1.0000
  H   H491      1.0  0.9412271825927915  0.3826781255404786  0.214977804837783  1.0000
  H   H492      1.0  0.944687171338952  0.4029871989508833  0.2556007821721075  1.0000
  H   H493      1.0  0.06328501128548827  0.40090418751941703  0.19799724511441416  1.0000
  H   H494      1.0  0.018567488903061504  0.3620026263444569  0.19166343619851942  1.0000
  H   H495      1.0  0.9878809745647752  0.4142093196831735  0.18713302364031273  1.0000
  H   H496      1.0  0.031320772848092614  0.45118329751643305  0.19450723860894858  1.0000
  H   H497      1.0  0.9162710926500954  0.32207702619154993  0.20375313688857566  1.0000
  H   H498      1.0  0.8780952712489465  0.3176610981214481  0.18102910120073687  1.0000
  H   H499      1.0  0.9288447490471404  0.3854789679212145  0.1347930139037029  1.0000
  H   H500      1.0  0.9663022491131364  0.38673040225030053  0.15188667389348007  1.0000
  H   H501      1.0  0.977673200513529  0.3376621647674074  0.14898971629780927  1.0000
  H   H502      1.0  0.9616351500017514  0.29224561835387086  0.13780268377172922  1.0000
  H   H503      1.0  0.9429960806363944  0.27045624755774345  0.21711759203929973  1.0000
  H   H504      1.0  0.9537794057906647  0.3143152764159895  0.22773310932551863  1.0000
  C   C793      1.0  0.9012935776277428  0.6154178865175266  0.4692167278843559  1.0000
  C   C794      1.0  0.8983154356898495  0.5978433235780051  0.48886474672112934  1.0000
  C   C795      1.0  0.9200236465141055  0.6008738757915525  0.002083704102031514  1.0000
  C   C796      1.0  0.9451921738066933  0.6218232265995952  0.4952608286825081  1.0000
  C   C797      1.0  0.9473584857945684  0.6406826921720861  0.47787675514416594  1.0000
  C   C798      1.0  0.9260335216124227  0.6377467312913593  0.46500893238110125  1.0000
  H   H505      1.0  0.8787743539819696  0.5805282654482966  0.4928378058224044  1.0000
  H   H506      1.0  0.9180819184477762  0.5872919185931751  0.017203832341941894  1.0000
  H   H507      1.0  0.9664086113806615  0.658263930198835  0.47297639025655835  1.0000
  H   H508      1.0  0.9296424010295271  0.6520354685765758  0.4496113883933967  1.0000
  C   C799      1.0  0.9967691488657195  0.6318016536166836  0.4646422780011497  1.0000
  C   C800      1.0  0.9982365534270371  0.6377679185436285  0.4908066569556882  1.0000
  C   C801      1.0  0.023121112969643007  0.6527180130497692  0.0011816179291345152  1.0000
  C   C802      1.0  0.0459087177075435  0.6613065298579047  0.486792858478863  1.0000
  C   C803      1.0  0.04412029993916395  0.6548850884937746  0.46079531696705395  1.0000
  C   C804      1.0  0.01961802281898873  0.6398575834647559  0.44968510726343985  1.0000
  C   C805      1.0  0.9716856824825931  0.6257473789662127  0.008396367342045408  1.0000
  C   C806      1.0  0.9699769665146212  0.5981820161268256  0.015768254346364086  1.0000
  C   C807      1.0  0.9825806804555489  0.5948952778345937  0.03708097962577585  1.0000
  C   C808      1.0  0.9815785684846682  0.5713775023074752  0.042061853279351705  1.0000
  C   C809      1.0  0.9701735118435906  0.5506087806536422  0.024203457011389685  1.0000
  C   C810      1.0  0.9598642643593893  0.5541773658321505  0.002052664577802732  1.0000
  C   C811      1.0  0.9593420065197026  0.577088609028755  0.49780218972873375  1.0000
  C   C812      1.0  0.983052328861429  0.670233760127251  0.02792470797235919  1.0000
  C   C813      1.0  0.9791589527169662  0.6850410819786428  0.04615557853106573  1.0000
  C   C814      1.0  0.9676145903112485  0.6750068629383484  0.06990256053926694  1.0000
  C   C815      1.0  0.961194507447694  0.649467633686019  0.0759707875259798  1.0000
  C   C816      1.0  0.9622536570101985  0.6332926885415754  0.05702464993082792  1.0000
  C   C817      1.0  0.9736592438854997  0.6434116005982377  0.03235928599950973  1.0000
  C   C818      1.0  0.9650130745964408  0.6946463896988457  0.08980781943308598  1.0000
  C   C819      1.0  0.05030671787367332  0.7463564695042437  0.09902461815874865  1.0000
  C   C820      1.0  0.03628520621828324  0.754377899332706  0.0836319240967048  1.0000
  C   C821      1.0  0.00909149725112935  0.7385694681327074  0.08226637902766797  1.0000
  C   C822      1.0  0.9952652445282099  0.7147867773997176  0.09526126984304395  1.0000
  C   C823      1.0  0.009461466852144279  0.7073566410476141  0.11094748140607553  1.0000
  C   C824      1.0  0.03633397051266913  0.7231342365114926  0.11322578248446286  1.0000
  C   C825      1.0  0.9479933124365012  0.681443320572264  0.11552173729225527  1.0000
  C   C826      1.0  0.9229330150898285  0.6585744373589043  0.11463245492310273  1.0000
  C   C827      1.0  0.9077572189921665  0.6476918657381914  0.13678478137405395  1.0000
  C   C828      1.0  0.9160967359223569  0.6594882551729938  0.1606023782998755  1.0000
  C   C829      1.0  0.9403537243922725  0.6831279023606173  0.1617832381997515  1.0000
  C   C830      1.0  0.9561737150300456  0.6934972877576255  0.13985478431729984  1.0000
  C   C831      1.0  0.9505294150973144  0.7301220810419461  0.08744241368983181  1.0000
  C   C832      1.0  0.933130519286964  0.7382498695215163  0.08119163550124887  1.0000
  C   C833      1.0  0.9133848428663169  0.7245830740926762  0.06298229861247599  1.0000
  C   C834      1.0  0.9117189813262168  0.7020513471200681  0.05206608593529146  1.0000
  C   C835      1.0  0.9284455524964713  0.6929258821296332  0.0591444554386224  1.0000
  C   C836      1.0  0.9480788073193803  0.707049428020162  0.07731829087155868  1.0000
  H   H509      1.0  0.9777195192170889  0.6199984630001891  0.45542159933495846  1.0000
  H   H510      1.0  0.024637942060389523  0.6569277847943497  0.02165218415796899  1.0000
  H   H511      1.0  0.0647522767443249  0.672652832877042  0.4954684055007876  1.0000
  H   H512      1.0  0.018647411544626152  0.6349751537949688  0.42942211785288503  1.0000
  H   H513      1.0  0.99388001417467  0.6110872391691539  0.050082854334103304  1.0000
  H   H514      1.0  0.9918784236010233  0.5694117187081256  0.05878808290107152  1.0000
  H   H515      1.0  0.952871069651894  0.5387689206197148  0.48722547184780074  1.0000
  H   H516      1.0  0.9500794375453119  0.5790060744890797  0.4805965934547067  1.0000
  H   H517      1.0  0.9905693452907619  0.678873640577712  0.009379932266042723  1.0000
  H   H518      1.0  0.9859968292673895  0.7057238893709458  0.04162070404125116  1.0000
  H   H519      1.0  0.9521992844964531  0.6402099309993621  0.09446956797818541  1.0000
  H   H520      1.0  0.953542831022401  0.612562274056083  0.06210485006193563  1.0000
  H   H521      1.0  0.0467163882046169  0.7722534204845711  0.07275780877425542  1.0000
  H   H522      1.0  0.9991308108830189  0.7449650834863707  0.070199375989704  1.0000
  H   H523      1.0  0.9993390038136456  0.688326970739116  0.12044809778140446  1.0000
  H   H524      1.0  0.047924118727314544  0.7163664061494736  0.12508268674280376  1.0000
  H   H525      1.0  0.9142736434559752  0.6485603737660136  0.09653680029181752  1.0000
  H   H526      1.0  0.8878574443649538  0.6297343964334374  0.13462520647584145  1.0000
  H   H527      1.0  0.948422584159987  0.6938831312825673  0.18007288985746614  1.0000
  H   H528      1.0  0.9744419446541327  0.7120743004177276  0.14345071319919592  1.0000
  H   H529      1.0  0.9651261389780897  0.7409738350245338  0.10236097901928211  1.0000
  H   H530      1.0  0.9353488825494437  0.7556742508468302  0.09042162602470874  1.0000
  H   H531      1.0  0.897016179235262  0.6909545486432095  0.03770118811927077  1.0000
  H   H532      1.0  0.9252560302234575  0.6746672158211384  0.05015618521009363  1.0000
  C   C837      1.0  0.9305724860467911  0.647461653112907  0.21999262797098398  1.0000
  C   C838      1.0  0.9217533369541935  0.6217072578433926  0.22724811675944503  1.0000
  C   C839      1.0  0.9389313568844609  0.6145751327333251  0.2364183561987646  1.0000
  C   C840      1.0  0.9660180395215137  0.6333182270549581  0.23858724295424574  1.0000
  C   C841      1.0  0.9748918986338028  0.6592845472531205  0.23053442638715968  1.0000
  C   C842      1.0  0.9574794298568797  0.6660770029870688  0.22033018279697122  1.0000
  H   H533      1.0  0.9007615376525945  0.6063979335980075  0.22694354142795078  1.0000
  H   H534      1.0  0.9301919748203357  0.5939209816404508  0.24321601200485213  1.0000
  H   H535      1.0  0.9951831285523154  0.6748574085295864  0.2338556554796317  1.0000
  H   H536      1.0  0.9648295419275658  0.6869140928323664  0.21556367585759992  1.0000
  C   C843      1.0  0.0233319332606693  0.6467688178733535  0.22463885675396905  1.0000
  C   C844      1.0  0.014426114343850936  0.6413762375436637  0.24979057123054577  1.0000
  C   C845      1.0  0.03410343531820042  0.6479113033642605  0.2683172872545573  1.0000
  C   C846      1.0  0.06059167271717844  0.6603965755959037  0.26191344541212147  1.0000
  C   C847      1.0  0.06898478798685441  0.667020972365414  0.23629613807211408  1.0000
  C   C848      1.0  0.0499287563490903  0.6600857171696456  0.21757736499193744  1.0000
  C   C849      1.0  0.9838442390630713  0.6265680325249214  0.25677640415226993  1.0000
  C   C850      1.0  0.9774815176205252  0.5965338063311484  0.2573622751720868  1.0000
  C   C851      1.0  0.9829560858982923  0.5867488599359941  0.27923349993174185  1.0000
  C   C852      1.0  0.9803625481725318  0.5622164260101598  0.2791287415374699  1.0000
  C   C853      1.0  0.9730273571108522  0.5469674026103517  0.2574747934474159  1.0000
  C   C854      1.0  0.9674347077282238  0.5563422452294429  0.23539405189921714  1.0000
  C   C855      1.0  0.9694621100758798  0.5810866252013671  0.2353183930589097  1.0000
  C   C856      1.0  0.992683659894174  0.6644260321114513  0.2901322528765477  1.0000
  C   C857      1.0  0.9888616707806988  0.6725035182278748  0.3139512077815542  1.0000
  C   C858      1.0  0.9716791577288071  0.6551020452649139  0.33185131341019863  1.0000
  C   C859      1.0  0.9554589987452793  0.6285481504642009  0.3241069521151354  1.0000
  C   C860      1.0  0.9586937332645945  0.6201435102358149  0.30032873658567905  1.0000
  C   C861      1.0  0.978141341838024  0.6374880790441454  0.2833869762675961  1.0000
  C   C862      1.0  0.9750097657684016  0.6637073127203867  0.36148241922703117  1.0000
  C   C863      1.0  0.05584904400097335  0.6777759955564158  0.36127096246822304  1.0000
  C   C864      1.0  0.051568165820515044  0.6984939950598242  0.36568439481949283  1.0000
  C   C865      1.0  0.026025539011656888  0.6935656299657118  0.3691375418899368  1.0000
  C   C866      1.0  0.004164948163354695  0.6681437687972265  0.36718787177432094  1.0000
  C   C867      1.0  0.009276400175812553  0.6470660267639736  0.36427597640761505  1.0000
  C   C868      1.0  0.03496205671223022  0.6517714481839325  0.3619480120904618  1.0000
  C   C869      1.0  0.9496550256848861  0.6416217149096863  0.3775453730153887  1.0000
  C   C870      1.0  0.9240068261338273  0.6364331839286875  0.3713161284967394  1.0000
  C   C871      1.0  0.9027673389495885  0.6196608769860404  0.3870201877862025  1.0000
  C   C872      1.0  0.9056272573967156  0.6064067168619787  0.4075101537176799  1.0000
  C   C873      1.0  0.9303565073804504  0.6099202712744828  0.4118615070204922  1.0000
  C   C874      1.0  0.9522723568104164  0.6279525881243105  0.3980993579655878  1.0000
  C   C875      1.0  0.978182888057336  0.7009765655781155  0.39187787332799556  1.0000
  C   C876      1.0  0.9721441292080347  0.7203484476970752  0.3982041163598596  1.0000
  C   C877      1.0  0.961075436425443  0.7289202923221973  0.38092286124552527  1.0000
  C   C878      1.0  0.9562015431210463  0.7186186686828306  0.3560990017436142  1.0000
  C   C879      1.0  0.9616596033060412  0.6991985670713591  0.34926254653224076  1.0000
  C   C880      1.0  0.9724652756152463  0.6895465094698747  0.36699193477762715  1.0000
  H   H537      1.0  0.008328950162583684  0.6407628002395831  0.21028113682792626  1.0000
  H   H538      1.0  0.028660134565508054  0.6437204313032119  0.2887005548214985  1.0000
  H   H539      1.0  0.07481568030449037  0.6650378952786703  0.2765117216509368  1.0000
  H   H540      1.0  0.05571391732958958  0.663607826338155  0.19743077379724022  1.0000
  H   H541      1.0  0.9908217563678106  0.5989733049045881  0.2964002968004829  1.0000
  H   H542      1.0  0.9859483460313836  0.5556751026401299  0.2956049089921222  1.0000
  H   H543      1.0  0.962262914783035  0.5448857046574064  0.21754244552718016  1.0000
  H   H544      1.0  0.9649668110868196  0.5881276466917963  0.2172242904038359  1.0000
  H   H545      1.0  0.006605082113000884  0.678253574901753  0.276783317487938  1.0000
  H   H546      1.0  0.001989080450177147  0.6934262718185197  0.318562517099782  1.0000
  H   H547      1.0  0.940118907011089  0.6130430538644733  0.33576035349275174  1.0000
  H   H548      1.0  0.946376179487116  0.5994405212726189  0.2949627788346407  1.0000
  H   H549      1.0  0.06708082863441248  0.7186142243310327  0.3662178866421737  1.0000
  H   H550      1.0  0.023537018144989236  0.7109244282837373  0.37019288571371295  1.0000
  H   H551      1.0  0.9929101033727993  0.6263030924019675  0.36206635027658374  1.0000
  H   H552      1.0  0.03841975775196109  0.6355453395988736  0.3583765268338957  1.0000
  H   H553      1.0  0.9201476622537236  0.645750693226202  0.3546925233020008  1.0000
  H   H554      1.0  0.8830166551822805  0.6164690156937659  0.38246513760563927  1.0000
  H   H555      1.0  0.9330529739630267  0.6002598167921057  0.4284754123639093  1.0000
  H   H556      1.0  0.9711739886851253  0.630842398972641  0.4029512235965881  1.0000
  H   H557      1.0  0.9858697342226189  0.6933304106843952  0.40714737927825684  1.0000
  H   H558      1.0  0.9759303181047156  0.7285016900921574  0.4176639580809967  1.0000
  H   H559      1.0  0.9482043003219645  0.7254641284128626  0.34054432016450176  1.0000
  H   H560      1.0  0.9539767195875875  0.6907088207440971  0.3296494471602245  1.0000
  C   C881      1.0  0.27322761685619146  0.7812397054658008  0.21706715281242805  1.0000
  C   C882      1.0  0.2794947291574102  0.765368012057707  0.20181316662428123  1.0000
  C   C883      1.0  0.2598887351139969  0.7445942365690935  0.18802909590539033  1.0000
  C   C884      1.0  0.23390764946371373  0.7398767452988956  0.18789601394525973  1.0000
  C   C885      1.0  0.22918034112155963  0.7568257028118452  0.20300042842602942  1.0000
  C   C886      1.0  0.24832455712468218  0.7770146720109574  0.21695657450736328  1.0000
  H   H561      1.0  0.2987935964540096  0.7669838099251245  0.2028665704777931  1.0000
  H   H562      1.0  0.2647218150369449  0.7318986958727922  0.17663041262347573  1.0000
  H   H563      1.0  0.20962510134587212  0.7530665779528652  0.2037317972156684  1.0000
  H   H564      1.0  0.2427848475438479  0.7895486569509539  0.22712007872200154  1.0000
  C   C887      1.0  0.1812972035967545  0.6957197217307065  0.21122590234663763  1.0000
  C   C888      1.0  0.1830756781704404  0.699818471538107  0.1847313404531163  1.0000
  C   C889      1.0  0.15955700168238798  0.6876706852382595  0.1710289424823521  1.0000
  C   C890      1.0  0.13516209956714564  0.6742907329142173  0.18346550985566418  1.0000
  C   C891      1.0  0.13320991554583783  0.6708186755657162  0.20978450444026692  1.0000
  C   C892      1.0  0.15691881251508674  0.6823854631297466  0.2237154309081649  1.0000
  C   C893      1.0  0.210690084520074  0.7186617912512927  0.1699018197587971  1.0000
  C   C894      1.0  0.2156088652059669  0.6969048832838862  0.15738571360464898  1.0000
  C   C895      1.0  0.20895243605055178  0.6891458174881644  0.13189237036452994  1.0000
  C   C896      1.0  0.20965071216947656  0.6679888902570033  0.12131798044791406  1.0000
  C   C897      1.0  0.21828420944457522  0.6540734239089084  0.13597193383331457  1.0000
  C   C898      1.0  0.2255600353988149  0.6620402410560028  0.16134946084865526  1.0000
  C   C899      1.0  0.22334519295173086  0.6824369112365085  0.17208797224963043  1.0000
  C   C900      1.0  0.19100061911883962  0.7473737808079707  0.15316181634820075  1.0000
  C   C901      1.0  0.19066644747759964  0.7660375778848936  0.13772702493142175  1.0000
  C   C902      1.0  0.2086570582817441  0.7777224783236142  0.11784310571050996  1.0000
  C   C903      1.0  0.22932255200061638  0.7716980469294361  0.11610178840127931  1.0000
  C   C904      1.0  0.2295412203896223  0.7529076600964163  0.13183824519415613  1.0000
  C   C905      1.0  0.2098687674031328  0.7397533505448587  0.14978782006453997  1.0000
  C   C906      1.0  0.2076033833760964  0.7986591155361139  0.09878425584300257  1.0000
  C   C907      1.0  0.12269116831115726  0.7680808287707721  0.07994287664212257  1.0000
  C   C908      1.0  0.14046071704858942  0.795457143946797  0.08180272613450161  1.0000
  C   C909      1.0  0.1672798016778879  0.8052637361065798  0.08620936858984632  1.0000
  C   C910      1.0  0.17664538571346466  0.7881532217655155  0.09106957609298305  1.0000
  C   C911      1.0  0.15858565280634376  0.760769554493053  0.08776755270612757  1.0000
  C   C912      1.0  0.13242583241291264  0.7511444243275529  0.08148922693979163  1.0000
  C   C913      1.0  0.2243940026798213  0.8007095887478934  0.0730350305250231  1.0000
  C   C914      1.0  0.2514471812148672  0.8200861100764423  0.07042848647791715  1.0000
  C   C915      1.0  0.26686814875130815  0.8195593388880231  0.05058317266526482  1.0000
  C   C916      1.0  0.2555569150774545  0.7995842519212718  0.03210010597220001  1.0000
  C   C917      1.0  0.22912991511554356  0.7799602658001371  0.03477008704694838  1.0000
  C   C918      1.0  0.21381892058268678  0.7806196113694507  0.05431295949539722  1.0000
  C   C919      1.0  0.2271528757425087  0.8503838445428517  0.10030286456589221  1.0000
  C   C920      1.0  0.23548593018625738  0.8740303521834671  0.11243233464636646  1.0000
  C   C921      1.0  0.2372074885954965  0.8759467366159279  0.13858720774660988  1.0000
  C   C922      1.0  0.2306569219683072  0.8533981449346439  0.15289681641009817  1.0000
  C   C923      1.0  0.2225649764065466  0.8297907333957916  0.14038924612511294  1.0000
  C   C924      1.0  0.21941177777126614  0.8272055326915969  0.11386422669844215  1.0000
  H   H565      1.0  0.19911588539340275  0.704095247419438  0.22290840327821845  1.0000
  H   H566      1.0  0.1593376935828344  0.6891948224832046  0.15023886315098842  1.0000
  H   H567      1.0  0.11703828131484174  0.667701709584232  0.1724579245790314  1.0000
  H   H568      1.0  0.15671560687594618  0.6810755954439476  0.2448455870268594  1.0000
  H   H569      1.0  0.20069663043129313  0.6977812683052659  0.11903929137547388  1.0000
  H   H570      1.0  0.20149027355736274  0.6622077096980122  0.1021254666291968  1.0000
  H   H571      1.0  0.23134750415128286  0.6512106658470395  0.17441263861733441  1.0000
  H   H572      1.0  0.2272594831023821  0.6865416604621332  0.19297505009420884  1.0000
  H   H573      1.0  0.17523273872464  0.7389957185602775  0.1678365274154293  1.0000
  H   H574      1.0  0.17621080627569066  0.7717840903076342  0.14032522710639123  1.0000
  H   H575      1.0  0.24613269162957171  0.7821473714022716  0.10347064201045852  1.0000
  H   H576      1.0  0.24533941897051273  0.7490165110282808  0.12895894132789038  1.0000
  H   H577      1.0  0.13314017619173524  0.8095469460315005  0.08059916858253337  1.0000
  H   H578      1.0  0.18014879651778729  0.826424740999091  0.08615601940757821  1.0000
  H   H579      1.0  0.16576644175081942  0.7472374473561402  0.0891707331982917  1.0000
  H   H580      1.0  0.11973000150281238  0.7297693427331178  0.0786481404877325  1.0000
  H   H581      1.0  0.26211241795446794  0.8342584902011649  0.08642625726539442  1.0000
  H   H582      1.0  0.2873549327371489  0.8342584832706994  0.05026462954786769  1.0000
  H   H583      1.0  0.22059145161393265  0.763476514004598  0.02203241832977076  1.0000
  H   H584      1.0  0.19351860454726588  0.7647633454291761  0.05481094986224159  1.0000
  H   H585      1.0  0.22636762980434258  0.849795038821378  0.07927901881768104  1.0000
  H   H586      1.0  0.238570654369008  0.8905606331527348  0.10132619888030751  1.0000
  H   H587      1.0  0.23079798531355444  0.8544109866853482  0.17351482037901897  1.0000
  H   H588      1.0  0.21885743963739313  0.8139030594912265  0.1532021677296981  1.0000
  C   C925      1.0  0.2491694484083296  0.7801434861591336  0.4681846637037513  1.0000
  C   C926      1.0  0.25839911902825397  0.7665936386116757  0.4539355821125089  1.0000
  C   C927      1.0  0.2407924770775186  0.7432741709260515  0.4418010681093475  1.0000
  C   C928      1.0  0.21335734133051296  0.7331541133384818  0.44375461816549194  1.0000
  C   C929      1.0  0.20450310167240607  0.7472176993051706  0.45823067627765673  1.0000
  C   C930      1.0  0.22243221501068933  0.7706886872949789  0.4697502197070368  1.0000
  H   H589      1.0  0.2791235150806374  0.7730716766918069  0.4535068486840998  1.0000
  H   H590      1.0  0.24879136834793483  0.733677857446479  0.4296296946711645  1.0000
  H   H591      1.0  0.1834735234448319  0.7408688710541508  0.45878550777324495  1.0000
  H   H592      1.0  0.21368413603216913  0.7807596882896805  0.48001848231594707  1.0000
  C   C931      1.0  0.15592320402646068  0.6861290873160794  0.457283970788681  1.0000
  C   C932      1.0  0.16351789658746047  0.692310749656761  0.43168412318105226  1.0000
  C   C933      1.0  0.14457972629320684  0.6805664407866627  0.4127810529257677  1.0000
  C   C934      1.0  0.1181082468349956  0.6648151975975336  0.4190975961063103  1.0000
  C   C935      1.0  0.1105499742330774  0.6598773929380117  0.4448313016621754  1.0000
  C   C936      1.0  0.12972798486949041  0.6704416065250329  0.4642387641861764  1.0000
  C   C937      1.0  0.19470735888017424  0.7102985772708795  0.4243510355820195  1.0000
  C   C938      1.0  0.20280431051653702  0.6881850446775466  0.420467215112902  1.0000
  C   C939      1.0  0.20092441794757934  0.6761232154815432  0.39672197907793877  1.0000
  C   C940      1.0  0.20715693716626246  0.6567951653031556  0.3935249080823816  1.0000
  C   C941      1.0  0.21427848458383095  0.647823186062207  0.41496157950283463  1.0000
  C   C942      1.0  0.21606218873178415  0.6594534757969093  0.4389648315829492  1.0000
  C   C943      1.0  0.21005163746395972  0.6790502918223446  0.4416730300719041  1.0000
  C   C944      1.0  0.1842853350231181  0.7417305033906563  0.39824097579488116  1.0000
  C   C945      1.0  0.18811601933345945  0.758932895394742  0.37899259083255227  1.0000
  C   C946      1.0  0.20567623202858085  0.7628472921977901  0.35901477705084867  1.0000
  C   C947      1.0  0.22118418395767508  0.7511733378859181  0.36113516454972244  1.0000
  C   C948      1.0  0.21832883510698825  0.7352075768839317  0.38153007193824934  1.0000
  C   C949      1.0  0.19883739050490332  0.729381590595999  0.40004126820014646  1.0000
  C   C950      1.0  0.20465952068055024  0.7766799393721089  0.33284651815578153  1.0000
  C   C951      1.0  0.12222406008418385  0.712432121444147  0.32399249386954204  1.0000
  C   C952      1.0  0.12803432475084395  0.7382427560584774  0.32346870189818255  1.0000
  C   C953      1.0  0.15381262668766318  0.7584829036811213  0.32453956548407303  1.0000
  C   C954      1.0  0.175224754338521  0.7536954159798774  0.32384699609971995  1.0000
  C   C955      1.0  0.16818849748511921  0.7269883221623129  0.32098359998962134  1.0000
  C   C956      1.0  0.14227082400951935  0.7068764600615745  0.323445422255011  1.0000
  C   C957      1.0  0.2283744740906427  0.7812638026452929  0.3130355418168072  1.0000
  C   C958      1.0  0.2546033641708471  0.8017435265112067  0.31838015989493834  1.0000
  C   C959      1.0  0.27503392864167775  0.8048498961164859  0.3022803466715592  1.0000
  C   C960      1.0  0.27041393914889866  0.7881565704668267  0.28144118609250884  1.0000
  C   C961      1.0  0.2450532415925312  0.7674942330870047  0.27770480336347786  1.0000
  C   C962      1.0  0.22452554864352947  0.7643955989038103  0.2926328745472232  1.0000
  C   C963      1.0  0.20434940896218853  0.818827670980113  0.3155303435766899  1.0000
  C   C964      1.0  0.20400177891424426  0.8421253899181613  0.3182540618277592  1.0000
  C   C965      1.0  0.20807110544551516  0.8536677616323974  0.3423135730455382  1.0000
  C   C966      1.0  0.2143698779993831  0.8430661713911818  0.36327495175123914  1.0000
  C   C967      1.0  0.21452534757050606  0.8196611870522846  0.35979852503762366  1.0000
  C   C968      1.0  0.20750618898080475  0.8058056666639923  0.3363792040070617  1.0000
  H   H593      1.0  0.17057208097023308  0.6946909740775776  0.47242155876097014  1.0000
  H   H594      1.0  0.15001140219924827  0.6830352274515975  0.39277995950089256  1.0000
  H   H595      1.0  0.10404403761373364  0.6547836046124785  0.40398910768798557  1.0000
  H   H596      1.0  0.12354257883896053  0.6675668716923985  0.48397796162537193  1.0000
  H   H597      1.0  0.19270511606786755  0.6809708044161974  0.38049218784685185  1.0000
  H   H598      1.0  0.20512523875703642  0.6477810117503103  0.3745267792841467  1.0000
  H   H599      1.0  0.22126570811452795  0.6514227290768387  0.4554002596620512  1.0000
  H   H600      1.0  0.21021014265568516  0.6866345084304954  0.4607351778888608  1.0000
  H   H601      1.0  0.16911273814575878  0.7387395167627788  0.4131787468299481  1.0000
  H   H602      1.0  0.17530779359248078  0.7677216662167619  0.3780555851948981  1.0000
  H   H603      1.0  0.23714198818759158  0.7553596413954095  0.34779204907190564  1.0000
  H   H604      1.0  0.23156839207335414  0.7279241656859594  0.38313636731708517  1.0000
  H   H605      1.0  0.11175094484309649  0.7423323022451829  0.32416903116359286  1.0000
  H   H606      1.0  0.15663281866325557  0.7779553913752458  0.3268423101877905  1.0000
  H   H607      1.0  0.18319229494944256  0.7215481046045757  0.32050248736407644  1.0000
  H   H608      1.0  0.13743553714705495  0.6867672793623889  0.32382177648628413  1.0000
  H   H609      1.0  0.25938581356323215  0.8156605965607776  0.33440043433748146  1.0000
  H   H610      1.0  0.29534928173123537  0.8199139017820154  0.30696537485983016  1.0000
  H   H611      1.0  0.24076933564125366  0.7531472230610069  0.26268943351783924  1.0000
  H   H612      1.0  0.2053294927601948  0.7487306688922045  0.28754821248450757  1.0000
  H   H613      1.0  0.19888300169436277  0.8080686475332636  0.2971801648467292  1.0000
  H   H614      1.0  0.1985392886246938  0.8498244608710959  0.30202621056693657  1.0000
  H   H615      1.0  0.21930319825295277  0.8520007739779359  0.38220712156048803  1.0000
  H   H616      1.0  0.21959626019730938  0.8117426901970861  0.37605159591188203  1.0000
  C   C969      1.0  0.24022931354081772  0.48306271018800556  0.09269565916851462  1.0000
  C   C970      1.0  0.24805342208460862  0.509670986406354  0.0971529348477574  1.0000
  C   C971      1.0  0.23037488404056974  0.5158799426208159  0.10791162193948123  1.0000
  C   C972      1.0  0.2034694194438391  0.49588843633608726  0.11264456739328026  1.0000
  C   C973      1.0  0.1959080804416004  0.4701635311785143  0.10444373109502857  1.0000
  C   C974      1.0  0.21410167664193358  0.46372875441013706  0.0957097909681488  1.0000
  H   H617      1.0  0.2684315439026106  0.5251626412548925  0.0959377374742034  1.0000
  H   H618      1.0  0.2377224433601496  0.5360761965861213  0.11460180339292689  1.0000
  H   H619      1.0  0.17577335451666048  0.4545275876914177  0.10588318903113503  1.0000
  H   H620      1.0  0.20817013485176838  0.44268291275084637  0.09155224069473951  1.0000
  C   C975      1.0  0.14485503766941246  0.4771975186214098  0.09540773759799817  1.0000
  C   C976      1.0  0.1527663628484879  0.48424964113705443  0.120606011360918  1.0000
  C   C977      1.0  0.13268320002733827  0.4768466938182656  0.13963731365067245  1.0000
  C   C978      1.0  0.10653489036630677  0.4614852207157225  0.13319253843566004  1.0000
  C   C979      1.0  0.09923903964029882  0.45400624108229615  0.10803519804531679  1.0000
  C   C980      1.0  0.1187499419113432  0.46112821504058815  0.08894530865358068  1.0000
  C   C981      1.0  0.18324735282512616  0.5010806102109998  0.12895797134275824  1.0000
  C   C982      1.0  0.18678030360866207  0.5303763884847477  0.12670488987780673  1.0000
  C   C983      1.0  0.17942798977646365  0.5412428213159348  0.1470097826460704  1.0000
  C   C984      1.0  0.1790547164314501  0.5645434529554751  0.144458139757444  1.0000
  C   C985      1.0  0.18697860110167935  0.577938218775618  0.12115444095463403  1.0000
  C   C986      1.0  0.1938392765590502  0.5678382584154994  0.1006124838200736  1.0000
  C   C987      1.0  0.1935893988129374  0.5440638636376927  0.1035311690827045  1.0000
  C   C988      1.0  0.1749654539852915  0.46651688610695285  0.16477816429376918  1.0000
  C   C989      1.0  0.17715244210773895  0.4593136223357632  0.18933391990515472  1.0000
  C   C990      1.0  0.19404012794226264  0.4782287407617725  0.20692304830043268  1.0000
  C   C991      1.0  0.20950122354027004  0.5044008957694515  0.1974831529943762  1.0000
  C   C992      1.0  0.20790263502693535  0.5114243508915315  0.17241155928971474  1.0000
  C   C993      1.0  0.18924288888671315  0.4928600695107631  0.15610552722724108  1.0000
  C   C994      1.0  0.19095487282138546  0.47151743247606714  0.23727000314478985  1.0000
  C   C995      1.0  0.10999349150291893  0.459326416807647  0.24082596863924147  1.0000
  C   C996      1.0  0.11384454534298068  0.43824656677868573  0.24356132671189656  1.0000
  C   C997      1.0  0.13927981801259556  0.44244037793035573  0.24345850828788895  1.0000
  C   C998      1.0  0.16235759226114185  0.4682174859846435  0.2428183181006718  1.0000
  C   C999      1.0  0.15741407096118093  0.48896808488771176  0.2407794093528984  1.0000
  C   C1000     1.0  0.13168354059322693  0.48470101512223623  0.24071927027470527  1.0000
  C   C1001     1.0  0.21684104472106921  0.49330418486720923  0.2523008927525428  1.0000
  C   C1002     1.0  0.24201613985689427  0.4992635047255862  0.24447311273611494  1.0000
  C   C1003     1.0  0.264154814308654  0.5192132278136334  0.2559228172359804  1.0000
  C   C1004     1.0  0.26218061670940074  0.5329173431562357  0.27617998673574246  1.0000
  C   C1005     1.0  0.23752494709313524  0.5271231471031563  0.2847507753633951  1.0000
  C   C1006     1.0  0.21514731841409857  0.5078994410014318  0.27262014130076223  1.0000
  C   C1007     1.0  0.18368954450770794  0.4353239924513996  0.27077716954968256  1.0000
  C   C1008     1.0  0.18182115321965883  0.41166788133884263  0.2778619409548857  1.0000
  C   C1009     1.0  0.18790947100318536  0.39774837543406105  0.2601092730663277  1.0000
  C   C1010     1.0  0.1951795215422865  0.4079727033781144  0.23552790984745345  1.0000
  C   C1011     1.0  0.19892135908895456  0.43223714424272286  0.2290212495810101  1.0000
  C   C1012     1.0  0.19106602216712723  0.4455103813506425  0.2455885956380842  1.0000
  H   H621      1.0  0.159662877430869  0.48396440022449966  0.08010641613540259  1.0000
  H   H622      1.0  0.13706417663003254  0.4825320844426743  0.16010050799250253  1.0000
  H   H623      1.0  0.09200201317404123  0.4560545272758075  0.14843876474274967  1.0000
  H   H624      1.0  0.11366908079875104  0.455146401856497  0.06888970206427886  1.0000
  H   H625      1.0  0.1730353282826307  0.530490125714298  0.16533881570015022  1.0000
  H   H626      1.0  0.1714790755406908  0.5712692257166563  0.160716448551416  1.0000
  H   H627      1.0  0.20029916763924635  0.5783190817123284  0.08312015994098393  1.0000
  H   H628      1.0  0.19878635018374616  0.5359005586778353  0.08721776513322652  1.0000
  H   H629      1.0  0.1602693309603546  0.4504027677500602  0.1529998288311322  1.0000
  H   H630      1.0  0.16499243207475753  0.4387587386918267  0.19564406118382507  1.0000
  H   H631      1.0  0.2253162247451486  0.520433084429966  0.20869230118146917  1.0000
  H   H632      1.0  0.2207957419328625  0.531676353328171  0.16603448903692622  1.0000
  H   H633      1.0  0.09739341146506106  0.4181190462816923  0.24343716861498169  1.0000
  H   H634      1.0  0.1407604257849935  0.42471806112369814  0.24259134157974935  1.0000
  H   H635      1.0  0.17376631787794022  0.5089860642430107  0.23961542719432172  1.0000
  H   H636      1.0  0.12797775871028821  0.5015284685112428  0.23957080787824295  1.0000
  H   H637      1.0  0.24368928220783498  0.487133168474015  0.22967889950060588  1.0000
  H   H638      1.0  0.28333570237793887  0.5213337329661112  0.25129792812590257  1.0000
  H   H639      1.0  0.23560491252463422  0.5373728991426981  0.3014771989821413  1.0000
  H   H640      1.0  0.1959876028741026  0.5029228925616032  0.27991636946477344  1.0000
  H   H641      1.0  0.17931438855525125  0.4459896218566961  0.285284267186076  1.0000
  H   H642      1.0  0.1757765836054037  0.4039547156760159  0.29725000377624383  1.0000
  H   H643      1.0  0.20209462641982331  0.39892591189001636  0.2211236306350676  1.0000
  H   H644      1.0  0.20712250444293492  0.4406226663306707  0.21014339893916137  1.0000
  C   C1013     1.0  0.2752560334927275  0.5263415454953628  0.3333644902163482  1.0000
  C   C1014     1.0  0.2763439878219801  0.5444127455868003  0.3510899985212061  1.0000
  C   C1015     1.0  0.2547498228576934  0.536657369780116  0.36746528752211505  1.0000
  C   C1016     1.0  0.23152324964052096  0.5126663947963587  0.36515478293734044  1.0000
  C   C1017     1.0  0.23289794775178446  0.49431467431945675  0.34909958903004007  1.0000
  C   C1018     1.0  0.254459174119456  0.5003522965604129  0.33362250626149936  1.0000
  H   H645      1.0  0.2930253714233992  0.5644409384542787  0.3517204888571017  1.0000
  H   H646      1.0  0.2563605413476853  0.5518484649867766  0.3810450793721758  1.0000
  H   H647      1.0  0.21573228320714236  0.4746214615438819  0.3466047872701574  1.0000
  H   H648      1.0  0.25261807445164414  0.4857331741277161  0.3195189224400792  1.0000
  C   C1019     1.0  0.17335100333114822  0.4894058621898875  0.3426976871578685  1.0000
  C   C1020     1.0  0.17728791743124211  0.48888296851937196  0.3690269635848721  1.0000
  C   C1021     1.0  0.15481881807768963  0.4729383625877898  0.3840539732520964  1.0000
  C   C1022     1.0  0.13007432585140127  0.4597199849911177  0.3740262669559587  1.0000
  C   C1023     1.0  0.1263897071335605  0.4600514774032889  0.3483119611027365  1.0000
  C   C1024     1.0  0.14809844016095208  0.47584188521233045  0.3322431874035861  1.0000
  C   C1025     1.0  0.20547774687922893  0.5057261899394189  0.38227696049000276  1.0000
  C   C1026     1.0  0.20248628562100324  0.5309841014359198  0.39122216337866417  1.0000
  C   C1027     1.0  0.18924732432504146  0.5311638259236023  0.41421081101055274  1.0000
  C   C1028     1.0  0.18559479084673516  0.5519800438182216  0.4203352971349301  1.0000
  C   C1029     1.0  0.19528008188202634  0.5734975613827334  0.40420250441705785  1.0000
  C   C1030     1.0  0.20689009072668518  0.5733937012658117  0.3805620267763665  1.0000
  C   C1031     1.0  0.20934598057399476  0.5516280473774055  0.3738982289185152  1.0000
  C   C1032     1.0  0.20029679193178246  0.46219347246907044  0.39994232971666743  1.0000
  C   C1033     1.0  0.19984681236520419  0.4458172800637089  0.41898313786071684  1.0000
  C   C1034     1.0  0.20709387122843795  0.45492020184231224  0.4438942960245212  1.0000
  C   C1035     1.0  0.21524209996709132  0.4812758978725669  0.4487675013284287  1.0000
  C   C1036     1.0  0.2186578307977348  0.4988207796512475  0.4290477035918762  1.0000
  C   C1037     1.0  0.20831300161006863  0.48873257125499686  0.4048310547826892  1.0000
  C   C1038     1.0  0.2021748758974942  0.43382913773544374  0.4663475118634645  1.0000
  C   C1039     1.0  0.11611560740776784  0.4011128431563794  0.473191726955895  1.0000
  C   C1040     1.0  0.12597190206862807  0.3895032064176192  0.4564478436047702  1.0000
  C   C1041     1.0  0.1531393619867058  0.39911166483477256  0.45484542816646306  1.0000
  C   C1042     1.0  0.17077593756304535  0.4204410357987917  0.4701091142059313  1.0000
  C   C1043     1.0  0.16034587234352288  0.43226167674219  0.4857200549227083  1.0000
  C   C1044     1.0  0.13355106301067504  0.42232121624108193  0.488255596058141  1.0000
  C   C1045     1.0  0.2205601833504624  0.44733673097974225  0.4913149291649333  1.0000
  C   C1046     1.0  0.24603138211960876  0.4686961807862532  0.4896911740537188  1.0000
  C   C1047     1.0  0.2613315942392414  0.4802197063484544  0.010914448745099501  1.0000
  C   C1048     1.0  0.25232789918225224  0.46873247177822225  0.03502519313670309  1.0000
  C   C1049     1.0  0.22843991417779802  0.44472549802074046  0.036470276986575983  1.0000
  C   C1050     1.0  0.21233167142373  0.435411521265141  0.015259982137118874  1.0000
  C   C1051     1.0  0.19885115517737453  0.38788262069562385  0.47123235698895777  1.0000
  C   C1052     1.0  0.20679933057483108  0.37020325699212764  0.46503997190533003  1.0000
  C   C1053     1.0  0.2273554464554919  0.37733817864614716  0.44688961011259176  1.0000
  C   C1054     1.0  0.24053609586747127  0.402534194507147  0.43590743844642116  1.0000
  C   C1055     1.0  0.2323695412348848  0.42017115215390965  0.4428893914276167  1.0000
  C   C1056     1.0  0.21116828755198644  0.4129719692622568  0.45993397016970716  1.0000
  H   H649      1.0  0.18917138987579973  0.5022201495562714  0.3294360504311521  1.0000
  H   H650      1.0  0.15577771677291624  0.4729086027796298  0.4045827385888596  1.0000
  H   H651      1.0  0.11262353639938068  0.4482981608383599  0.38647117620140725  1.0000
  H   H652      1.0  0.14575903994969674  0.47704810835148737  0.31172218194787993  1.0000
  H   H653      1.0  0.18211927956291374  0.5152251785128099  0.427998179678893  1.0000
  H   H654      1.0  0.17449656636533023  0.5502577530701368  0.43761655224926455  1.0000
  H   H655      1.0  0.2127291394815251  0.5897442479665118  0.3670462539450275  1.0000
  H   H656      1.0  0.21605908200661142  0.5508575228084636  0.3548263812502371  1.0000
  H   H657      1.0  0.1933358393641824  0.45294889908518887  0.38128951562547686  1.0000
  H   H658      1.0  0.19290249241585175  0.4254166567634029  0.41446882705570376  1.0000
  H   H659      1.0  0.22036141804979256  0.48993633566237305  0.4680061864394362  1.0000
  H   H660      1.0  0.22649291280054562  0.519178975777378  0.43373467175041147  1.0000
  H   H661      1.0  0.1117680309044737  0.3728630912769628  0.44453448621173836  1.0000
  H   H662      1.0  0.15981389159622156  0.3898687643076597  0.44128115607851665  1.0000
  H   H663      1.0  0.17451153148378046  0.4504860658309097  0.49607367622324744  1.0000
  H   H664      1.0  0.1268007732108387  0.43183189245081804  0.0022641213366108026  1.0000
  H   H665      1.0  0.2539737465637643  0.4770993887278776  0.4708948021629705  1.0000
  H   H666      1.0  0.2799167435505634  0.4985235528761372  0.008892999729704809  1.0000
  H   H667      1.0  0.22210354981122646  0.4342323376126895  0.055326205964438185  1.0000
  H   H668      1.0  0.19308897435607317  0.4170220671780445  0.017238751806699204  1.0000
  H   H669      1.0  0.18331130408246887  0.383211362826067  0.4853243009887922  1.0000
  H   H670      1.0  0.19753836094858107  0.351401557723546  0.4749609798369316  1.0000
  H   H671      1.0  0.25600166526830154  0.4087719772348597  0.4214410801855779  1.0000
  H   H672      1.0  0.2426722169417973  0.43976962554238036  0.4344796203319005  1.0000
  C   C1057     1.0  0.28763847077509985  0.5521402403253435  0.29105761869261615  1.0000
  C   C1058     1.0  0.2952951174516603  0.5368538551845997  0.310391362346574  1.0000
  H   H673      1.0  0.30413537429606974  0.5642633041132243  0.2769501549306673  1.0000
  H   H674      1.0  0.28414876600288796  0.566138986754865  0.3027381796539327  1.0000
  H   H675      1.0  0.2945973236494633  0.5199913138218902  0.300064900629735  1.0000
  H   H676      1.0  0.3156677403648156  0.5502699970267144  0.3171909581229259  1.0000
  C   C1059     1.0  0.2604820954770501  0.4748687683045187  0.08471500949526034  1.0000
  C   C1060     1.0  0.27226528488057455  0.48182605120765554  0.05664111780957691  1.0000
  H   H677      1.0  0.25269716406369636  0.45360339309202274  0.08872201807616041  1.0000
  H   H678      1.0  0.27764822354260793  0.4851993262771044  0.09737389746086055  1.0000
  H   H679      1.0  0.2876203273492037  0.4763464967097511  0.05349584402007642  1.0000
  H   H680      1.0  0.28259842053083983  0.5037692221455833  0.05393757524925625  1.0000
  C   C1061     1.0  0.1917890891512957  0.5973168362430679  0.41094390108548096  1.0000
  C   C1062     1.0  0.2186107688216275  0.6242355149536012  0.41186926690154935  1.0000
  H   H681      1.0  0.18182235328472765  0.5951967485457391  0.4297790723815152  1.0000
  H   H682      1.0  0.17820086138284408  0.5980518253244501  0.39685777699643937  1.0000
  H   H683      1.0  0.23061867187508897  0.6265562160430621  0.393903202283919  1.0000
  H   H684      1.0  0.2309916820578153  0.6240728213798056  0.42844825278020926  1.0000
  C   C1063     1.0  0.2937968265112317  0.8018180154285139  0.23523109439701645  1.0000
  C   C1064     1.0  0.29327490099674497  0.7919840060041189  0.2630910073625482  1.0000
  H   H685      1.0  0.2916062567191664  0.8201440323560424  0.23625345872629955  1.0000
  H   H686      1.0  0.31348578506334207  0.8079635671501141  0.22653420770218466  1.0000
  H   H687      1.0  0.31335605444306514  0.8065153988145486  0.2715803172391005  1.0000
  H   H688      1.0  0.2925111505488923  0.7721681500462736  0.2621578816654226  1.0000
  C   C1065     1.0  0.26827307410864243  0.804816422224121  0.48358996757251305  1.0000
  C   C1066     1.0  0.27342114099275033  0.7980959873526995  0.010555554246205023  1.0000
  H   H689      1.0  0.2623904913925239  0.8201869712405546  0.4822087087443354  1.0000
  H   H690      1.0  0.28673818538287055  0.8148816785268894  0.47258451626317083  1.0000
  H   H691      1.0  0.29387846513978555  0.8121802790676127  0.016063129826536904  1.0000
  H   H692      1.0  0.2739225712318498  0.7792223294956129  0.009930883821102295  1.0000
  C   C1067     1.0  0.21702610922869847  0.6282701105261381  0.12547727669456124  1.0000
  C   C1068     1.0  0.1887870031957466  0.6052779858150551  0.12010161909220149  1.0000
  H   H693      1.0  0.23000616680662292  0.6328084389962064  0.10805770170038262  1.0000
  H   H694      1.0  0.22592489878295907  0.6211264866525352  0.1401135763505567  1.0000
  H   H695      1.0  0.18216884500363295  0.6084569451070935  0.1012563599507929  1.0000
  H   H696      1.0  0.17524005250036165  0.6063287353342449  0.1344779627327815  1.0000
  C   C1069     1.0  0.10639012174211572  0.6584141941746003  0.22334877652821325  1.0000
  C   C1070     1.0  0.09894004051525022  0.6796710432799346  0.23011345283980786  1.0000
  H   H697      1.0  0.09046789844899314  0.6434040945005195  0.2105372129028131  1.0000
  H   H698      1.0  0.10552342267671858  0.6472275909284871  0.24142929939143704  1.0000
  H   H699      1.0  0.11049436228100924  0.6924431415864529  0.24687867586383996  1.0000
  H   H700      1.0  0.10446865354349569  0.6928957730314718  0.21321437186753936  1.0000
  C   C1071     1.0  0.08440026261281706  0.6848532007721817  0.356803210949553  1.0000
  C   C1072     1.0  0.0934101286820144  0.6900163637275306  0.32794227332764536  1.0000
  H   H701      1.0  0.09851903777128862  0.702016069126392  0.36924230028420874  1.0000
  H   H702      1.0  0.0866809116165565  0.6678818882830672  0.3636532459527766  1.0000
  H   H703      1.0  0.08076798628895822  0.6951722063271466  0.31695816169121055  1.0000
  H   H704      1.0  0.09020659992709394  0.671442680069615  0.31894081130131935  1.0000
  C   C1073     1.0  0.882091825715356  0.5900733089685275  0.42564305577803957  1.0000
  C   C1074     1.0  0.8801045450815735  0.6070939885745061  0.44824952926786205  1.0000
  H   H705      1.0  0.8637540991105224  0.5809736362575171  0.41468028381451194  1.0000
  H   H706      1.0  0.8839934378340902  0.5733117276320907  0.43300524293103676  1.0000
  H   H707      1.0  0.8813402368064245  0.6254700077517401  0.4404954681214774  1.0000
  H   H708      1.0  0.8594699864550925  0.5958895936553169  0.4569289562303152  1.0000
  C   C1075     1.0  0.91022772237586  0.655474678296885  0.21159255672658928  1.0000
  C   C1076     1.0  0.8987032804550825  0.6458356734080944  0.18471213474749976  1.0000
  H   H709      1.0  0.8933127649101656  0.6464159632973844  0.2258571580799459  1.0000
  H   H710      1.0  0.9173318325061508  0.6769297147265201  0.21374980366048466  1.0000
  H   H711      1.0  0.891880907241412  0.6246795977159377  0.1826006711118417  1.0000
  H   H712      1.0  0.8807608431195125  0.6473545594620694  0.18302242064729937  1.0000
  C   C1077     1.0  0.06838619786674212  0.6619912050872814  0.444169771802051  1.0000
  C   C1078     1.0  0.081597459265012  0.6459164596613132  0.4518792136323569  1.0000
  H   H713      1.0  0.06279468081138281  0.659001995278054  0.42363518655449484  1.0000
  H   H714      1.0  0.08371053977778344  0.6835324322695537  0.4461873408769172  1.0000
  H   H715      1.0  0.08032180456454394  0.6419902772989319  0.4730481691563373  1.0000
  H   H716      1.0  0.07100118004155777  0.6262562755684393  0.4415508119452536  1.0000
  C   C1079     1.0  0.08076600303710375  0.7630080875423929  0.09985899936942164  1.0000
  C   C1080     1.0  0.09334949836492626  0.7571378106027892  0.07610309349800468  1.0000
  H   H717      1.0  0.0866469665520816  0.7834779762119901  0.0995497681092931  1.0000
  H   H718      1.0  0.08806344524904823  0.7590070315012173  0.11825243943627607  1.0000
  H   H719      1.0  0.08862338063959065  0.763599046275222  0.05785825515339522  1.0000
  H   H720      1.0  0.08273940943688601  0.7347361282702212  0.07440464953161495  1.0000
  C   C1081     1.0  0.08549806525632798  0.461618586416877  0.34027272432750055  1.0000
  C   C1082     1.0  0.09844562536286784  0.44436383341251084  0.3378594013187183  1.0000
  H   H721      1.0  0.0852728860435779  0.46678307272077124  0.3608790884748356  1.0000
  H   H722      1.0  0.09797276175996399  0.4806755771248415  0.3297115262086819  1.0000
  H   H723      1.0  0.09858779669793254  0.4379578768436004  0.31761969155133485  1.0000
  H   H724      1.0  0.08625302810943543  0.42527161369340727  0.3482130226192575  1.0000
  C   C1083     1.0  0.07640633095232421  0.4513231591981254  0.20501993747115987  1.0000
  C   C1084     1.0  0.08128814575712555  0.45291354053392613  0.23459672412059218  1.0000
  H   H725      1.0  0.09204908868647924  0.45002638129408074  0.19399896639970343  1.0000
  H   H726      1.0  0.07858629126801722  0.47055888723207007  0.19905064896792604  1.0000
  H   H727      1.0  0.06650895525949325  0.4341897332096217  0.24447893264690776  1.0000
  H   H728      1.0  0.07811296757099435  0.4689240167097551  0.2438659020433908  1.0000
  C   C1085     1.0  0.9944324929267863  0.5175398498838985  0.2653918120960013  1.0000
  C   C1086     1.0  0.9691615780568056  0.5186568476948014  0.25967665969739007  1.0000
  H   H729      1.0  0.005602005332313101  0.5299919550163915  0.28182918014536773  1.0000
  H   H730      1.0  0.007634804990156073  0.5262224206497111  0.24902816291667812  1.0000
  H   H731      1.0  0.9531896375954815  0.5076895399470094  0.27465517010800705  1.0000
  H   H732      1.0  0.9599040411669101  0.5077751797551878  0.24101802569540662  1.0000
  C   C1087     1.0  0.07051785098032097  0.4393983467779263  0.10164396600959891  1.0000
  C   C1088     1.0  0.059928284621733115  0.45900067820615503  0.09950999871887509  1.0000
  H   H733      1.0  0.06612867115775953  0.4266268539764718  0.08406589544482744  1.0000
  H   H734      1.0  0.0584713532679488  0.42493868224798387  0.11686613668541129  1.0000
  H   H735      1.0  0.05982021440993478  0.46731409089377074  0.11876769553847266  1.0000
  H   H736      1.0  0.07404680992874106  0.47649338314569023  0.0886230795926814  1.0000
  C   C1089     1.0  0.07505478540053355  0.3943163943506803  0.44972778660925444  1.0000
  C   C1090     1.0  0.08640167789770602  0.39182991335518313  0.4752616752278972  1.0000
  H   H737      1.0  0.08068952535084643  0.3859672675776731  0.43290824441782205  1.0000
  H   H738      1.0  0.08397244803287847  0.41605698013738934  0.44490114059168995  1.0000
  H   H739      1.0  0.08247232125632245  0.40267660283978407  0.4911403318411468  1.0000
  H   H740      1.0  0.07651843640612956  0.37104777465729316  0.48155105882473964  1.0000
  C   C1091     1.0  0.8842393732433487  0.345847023446063  0.38552253074216714  1.0000
  C   C1092     1.0  0.8847146704460452  0.3388940609308911  0.35675277172268144  1.0000
  H   H741      1.0  0.8880879024885032  0.36593580097541367  0.38903193695027577  1.0000
  H   H742      1.0  0.8640601699725552  0.33303311060337515  0.39305543527842235  1.0000
  H   H743      1.0  0.8659427558975012  0.3346961769818476  0.3481528835410644  1.0000
  H   H744      1.0  0.8836519060816448  0.31959580119984493  0.35608736192202844  1.0000
  C   C1093     1.0  0.8681038376064447  0.33029580334158504  0.11854673292536953  1.0000
  C   C1094     1.0  0.8757774408351863  0.34781137289561914  0.14290926749843136  1.0000
  H   H745      1.0  0.8690546012169932  0.31259163609649987  0.12447470006197389  1.0000
  H   H746      1.0  0.8477966985661005  0.3233650585238594  0.11338195009073855  1.0000
  H   H747      1.0  0.8585768154259704  0.3393653175708629  0.15702158118604093  1.0000
  H   H748      1.0  0.8792333720464399  0.3678948510373533  0.13747599277922204  1.0000
  C   C1095     1.0  0.9448605740681894  0.49827546890349106  0.02592692659418882  1.0000
  C   C1096     1.0  0.9712146651924463  0.5252309730776028  0.02967824709425489  1.0000
  H   H749      1.0  0.9385725195070507  0.496161710570657  0.005430152807939237  1.0000
  H   H750      1.0  0.9293115212109709  0.4984207661862032  0.0378575497225729  1.0000
  H   H751      1.0  0.9795844471730072  0.5268398228634997  0.0491155851603261  1.0000
  H   H752      1.0  0.9864774087329331  0.5253144998958507  0.017335750319913967  1.0000
  C   C1097     1.0  0.5887750974352285  0.7734800982054564  0.4293018396964987  1.0000
  C   C1098     1.0  0.5986236530255779  0.788329975959463  0.45542547927548704  1.0000
  H   H753      1.0  0.577312416829832  0.7807208709387389  0.41858156401600793  1.0000
  H   H754      1.0  0.5742113519776609  0.7522222940041899  0.4321885154497687  1.0000
  H   H755      1.0  0.5843601503400173  0.7946710168822295  0.4616702435562507  1.0000
  H   H756      1.0  0.6171759079751896  0.8074373603611508  0.45155329862795535  1.0000
  C   C1099     1.0  0.618366270033795  0.8117699392698869  0.19232380207648525  1.0000
  C   C1100     1.0  0.6234931259459502  0.8060647160477922  0.21983743034984046  1.0000
  H   H757      1.0  0.6232610697656825  0.8328106293868738  0.19248055167384023  1.0000
  H   H758      1.0  0.59656253054199  0.7995910780542934  0.18771462672554817  1.0000
  H   H759      1.0  0.6138164462663005  0.8139225165323705  0.23316308609527858  1.0000
  H   H760      1.0  0.6447040358225963  0.8185841282075036  0.22395792719120172  1.0000
  C   C1101     1.0  0.2532505755250025  0.3538988654831531  0.4585119719659795  1.0000
  C   C1102     1.0  0.2347222331682266  0.3566476800142799  0.4394886235543086  1.0000
  H   H761      1.0  0.2585974753544807  0.3395253151557103  0.45054839403105085  1.0000
  H   H762      1.0  0.24110407462608058  0.3433562068539892  0.4760105037499148  1.0000
  H   H763      1.0  0.24287768558493034  0.3607991761649018  0.41957094885079804  1.0000
  H   H764      1.0  0.21578574954715615  0.337713291099816  0.4366543269981744  1.0000
  C   C1103     1.0  0.49505382366492195  0.5990609817003816  0.06634290910131317  1.0000
  C   C1104     1.0  0.494646764181573  0.6236612222759357  0.058962680224858004  1.0000
  H   H765      1.0  0.5077095539629035  0.6025567868205013  0.0831028942056317  1.0000
  H   H766      1.0  0.5053314960634169  0.594184729791242  0.05100686217098672  1.0000
  H   H767      1.0  0.48777351727309515  0.6306208483095886  0.07504910765341354  1.0000
  H   H768      1.0  0.48087085827786097  0.6194090291034777  0.04302757047691746  1.0000
  C   C1105     1.0  0.2024871920210566  0.3612818500576819  0.2580451447051185  1.0000
  C   C1106     1.0  0.18435491841276133  0.3708223239972467  0.2702184581135658  1.0000
  H   H769      1.0  0.19984654592248494  0.34345694507430896  0.26868006169398034  1.0000
  H   H770      1.0  0.19467508655817306  0.3535509052796902  0.23872304087274634  1.0000
  H   H771      1.0  0.1862469846111894  0.3709409600898168  0.2917327283445906  1.0000
  H   H772      1.0  0.16306482286333274  0.35495226525861323  0.2675471190596324  1.0000
  C   C1107     1.0  0.3217087623327618  0.5289967169872387  0.42156135834196407  1.0000
  C   C1108     1.0  0.3051281055951261  0.5135606401510345  0.3972923303356412  1.0000
  H   H773      1.0  0.3396479526503613  0.5488168052763485  0.41680649122417857  1.0000
  H   H774      1.0  0.30976697736573994  0.5342644641406239  0.4341963846733135  1.0000
  H   H775      1.0  0.2970566866699702  0.5254119677146909  0.38959064838639257  1.0000
  H   H776      1.0  0.28727518867890595  0.49485239792804697  0.4035545543487836  1.0000
  C   C1109     1.0  0.31919962759463166  0.5218971229101864  0.1711540705643991  1.0000
  C   C1110     1.0  0.3062554729790161  0.5090975493253168  0.14489812501338595  1.0000
  H   H777      1.0  0.3399826896595946  0.5385565730628029  0.16829242042753847  1.0000
  H   H778      1.0  0.30783385143939307  0.5305963455542345  0.17888873200814084  1.0000
  H   H779      1.0  0.2970991715743008  0.5198631662697589  0.13624605163165943  1.0000
  H   H780      1.0  0.28870363437045804  0.48885344607798054  0.14942873156861908  1.0000
  C   C1111     1.0  0.4878819513463088  0.5976459087423958  0.311788140936866  1.0000
  C   C1112     1.0  0.48704434928208606  0.6228993488311133  0.3040495995525957  1.0000
  H   H781      1.0  0.5014863660314487  0.6018478940048368  0.32845830541794774  1.0000
  H   H782      1.0  0.4971112526497112  0.5927854745609255  0.2958706849183305  1.0000
  H   H783      1.0  0.48016833124959934  0.6302524258068788  0.32056456641253384  1.0000
  H   H784      1.0  0.47268860024757603  0.6171881722642831  0.28853177740850483  1.0000
  C   C1113     1.0  0.4648050221176161  0.4709953671791273  0.3830548885659848  1.0000
  C   C1114     1.0  0.4346388494116381  0.45475642738094646  0.390977727125363  1.0000
  H   H785      1.0  0.4752734630838449  0.4893182972765858  0.39501868518588834  1.0000
  H   H786      1.0  0.4663221282928283  0.47852994333806764  0.36339328993736103  1.0000
  H   H787      1.0  0.4261395668342443  0.43407265670468403  0.38521407547014436  1.0000
  H   H788      1.0  0.43298353306938303  0.4551743195301165  0.4124454380700448  1.0000
  C   C1115     1.0  0.44340374949958067  0.44950177584750933  0.46964546131276486  1.0000
  C   C1116     1.0  0.4516442553930613  0.4437589678162476  0.49581760014836057  1.0000
  H   H789      1.0  0.46053366514463145  0.4673917511172273  0.4604868616950311  1.0000
  H   H790      1.0  0.4388548939054369  0.43307595563349344  0.45619370750014754  1.0000
  H   H791      1.0  0.43405727224353585  0.4353047321598121  0.009370232414721125  1.0000
  H   H792      1.0  0.46697622356240764  0.46244597716762587  0.004923820568958459  1.0000
  C   C1117     1.0  0.44696072990876967  0.45695002549100344  0.13653859914751498  1.0000
  C   C1118     1.0  0.4753579283065059  0.4812045417558939  0.13937037374230551  1.0000
  H   H793      1.0  0.43831409786681963  0.44699793258750603  0.1545582069444399  1.0000
  H   H794      1.0  0.447387739921457  0.4412050336536184  0.12468906677617843  1.0000
  H   H795      1.0  0.4823789281728995  0.4917434213241785  0.12055945207457494  1.0000
  H   H796      1.0  0.4750948152194381  0.4960628474980914  0.15225895418719818  1.0000
  C   C1119     1.0  0.3822838198607978  0.39052114480743405  0.22294914265376864  1.0000
  C   C1120     1.0  0.37693486098488693  0.3699115407949808  0.24387560189471225  1.0000
  H   H797      1.0  0.40405710060771594  0.4049992154335627  0.2225475688090597  1.0000
  H   H798      1.0  0.37891574087490465  0.38170033322788444  0.2039762334689695  1.0000
  H   H799      1.0  0.3561840989720016  0.35406242903769886  0.24587765120746408  1.0000
  H   H800      1.0  0.38052186266399435  0.37902502448223335  0.2629901289088049  1.0000
  C   C1121     1.0  0.5684023948711647  0.38313894198615034  0.07400385167501172  1.0000
  C   C1122     1.0  0.5532710791503599  0.3677121255797502  0.09859084080765242  1.0000
  H   H801      1.0  0.5815453421975706  0.3754917917259757  0.06713810291264745  1.0000
  H   H802      1.0  0.5827419962449385  0.4040578086327848  0.07920704592087571  1.0000
  H   H803      1.0  0.5634942798960443  0.35882139805077273  0.10771490895468179  1.0000
  H   H804      1.0  0.533805978855932  0.3502310058443739  0.09276142416047418  1.0000
  C   C1123     1.0  0.48749912378824856  0.29717931966775374  0.3159939964698562  1.0000
  C   C1124     1.0  0.4840669847436656  0.30890665520303734  0.34207495670302995  1.0000
  H   H805      1.0  0.48016371895428533  0.27503962522815284  0.319043629725327  1.0000
  H   H806      1.0  0.5096035519253168  0.3059866535220825  0.3123701320161543  1.0000
  H   H807      1.0  0.49207774555710687  0.301895718029264  0.3569972079759825  1.0000
  H   H808      1.0  0.46240953375679217  0.29891652104174504  0.34704904046068086  1.0000
  C   C1125     1.0  0.9292688059168313  0.7421225927235212  0.4047068966857745  1.0000
  C   C1126     1.0  0.9543672263413367  0.7500624110837673  0.38739848198773985  1.0000
  H   H809      1.0  0.9314559151922903  0.7600152265851219  0.4140459135380877  1.0000
  H   H810      1.0  0.9286481992331899  0.7291051334527187  0.4203934962428589  1.0000
  H   H811      1.0  0.953212308607379  0.7600580218800705  0.36948867650777406  1.0000
  H   H812      1.0  0.9722805252983627  0.7664418878574032  0.3972593508411483  1.0000
  C   C1127     1.0  0.676893153179706  0.6706068449749003  0.4780397126463668  1.0000
  C   C1128     1.0  0.6472066400847345  0.6494631929339594  0.4826432620835374  1.0000
  H   H813      1.0  0.6791695068096077  0.6877071859452246  0.4663843712984861  1.0000
  H   H814      1.0  0.6862828133413214  0.6797880890591262  0.4971658794820452  1.0000
  H   H815      1.0  0.6457401774461947  0.6343553214203151  0.49728615763843137  1.0000
  H   H816      1.0  0.6387206814983969  0.6384315433276021  0.4641184860297902  1.0000
  C   C1129     1.0  0.7616262931584349  0.7505634703425403  0.35043816851240317  1.0000
  C   C1130     1.0  0.7438887084867969  0.745873716724481  0.3746780969647616  1.0000
  H   H817      1.0  0.7741953549059991  0.7722871570124439  0.3465310684001143  1.0000
  H   H818      1.0  0.7476905325092988  0.7423122157208821  0.33419091754893765  1.0000
  H   H819      1.0  0.7340151247760365  0.7248431074894665  0.3800983738832001  1.0000
  H   H820      1.0  0.7565613396705857  0.757354538196964  0.390548993696954  1.0000
  C   C1131     1.0  0.6260295265915352  0.5391593231290163  0.3801158336155788  1.0000
  C   C1132     1.0  0.6254581261218446  0.5127054893619325  0.3735063549251278  1.0000
  H   H821      1.0  0.6105172811054032  0.5353939635302732  0.395267001379718  1.0000
  H   H822      1.0  0.6188945961456627  0.5445323305711195  0.36295485665763055  1.0000
  H   H823      1.0  0.639164907056762  0.5100075742982817  0.3859667839326906  1.0000
  H   H824      1.0  0.6347706175604862  0.5151628788261851  0.35395145466104033  1.0000
  C   C1133     1.0  0.8965297371857817  0.7362420045569235  0.05433643313559518  1.0000
  C   C1134     1.0  0.8702690047036665  0.7197458919258837  0.03917071559447378  1.0000
  H   H825      1.0  0.9087349820549033  0.7542815804636593  0.04266906397207585  1.0000
  H   H826      1.0  0.8909734102896022  0.7439509272382675  0.071191864776917  1.0000
  H   H827      1.0  0.8727190433422951  0.7080369499249557  0.023607674184377703  1.0000
  H   H828      1.0  0.8682642940158685  0.7347976385999678  0.027113024413778414  1.0000
  C   C1135     1.0  0.6432510747865064  0.6476157607936863  0.22480375422643406  1.0000
  C   C1136     1.0  0.6731110814423514  0.6708440652066371  0.22553900295660165  1.0000
  H   H829      1.0  0.6392006205991808  0.6295632613875376  0.23552402990692484  1.0000
  H   H830      1.0  0.636798329408409  0.6414052047925042  0.20519259482468208  1.0000
  H   H831      1.0  0.6761378116609114  0.6863300426702679  0.2111347237442158  1.0000
  H   H832      1.0  0.6776944764699561  0.6817544278419585  0.2445778711303868  1.0000
  C   C1137     1.0  0.6921980943354562  0.6874150267638813  0.11192658439846491  1.0000
  C   C1138     1.0  0.7001248198872544  0.7064696077800686  0.1357886066433388  1.0000
  H   H833      1.0  0.6713624523574712  0.6704990908433918  0.11517836255547516  1.0000
  H   H834      1.0  0.6910739004230042  0.6972122447148861  0.0943238762113369  1.0000
  H   H835      1.0  0.7220057153024892  0.7159039494979943  0.13812568882073423  1.0000
  H   H836      1.0  0.6917215668488995  0.6951680148785514  0.15428467113717437  1.0000
  C   C1139     1.0  0.7657867535713982  0.5697175068602035  0.49877023489061667  1.0000
  C   C1140     1.0  0.745177699879095  0.5605710366916837  0.021145851918988205  1.0000
  H   H837      1.0  0.7865200116615461  0.5824714846719348  0.00623718043788568  1.0000
  H   H838      1.0  0.7652853638237166  0.5517116726992984  0.4911577915735254  1.0000
  H   H839      1.0  0.74599830132683  0.5447353692575655  0.03197982781581376  1.0000
  H   H840      1.0  0.7244865475873029  0.5497530967782308  0.013112435054545069  1.0000
  C   C1141     1.0  0.8514947179424242  0.6646157835883368  0.23765799719764874  1.0000
  C   C1142     1.0  0.8581784363506294  0.6612947248418674  0.26539569203652996  1.0000
  H   H841      1.0  0.859011620748681  0.6543461867554503  0.22464273669449766  1.0000
  H   H842      1.0  0.8629605153850567  0.6859059788680206  0.2321252020038811  1.0000
  H   H843      1.0  0.8798693390372598  0.6713334944081373  0.267036906880123  1.0000
  H   H844      1.0  0.8504394751499902  0.6393630292773306  0.2676285978107328  1.0000
  C   C1143     1.0  0.6244912399149093  0.5192764878224199  0.22741301423191004  1.0000
  C   C1144     1.0  0.6503285621673767  0.5186707513028622  0.22290646330795416  1.0000
  H   H845      1.0  0.6266192591631411  0.5376004669246731  0.21909636170887997  1.0000
  H   H846      1.0  0.620897269167007  0.5185032175039407  0.2484810913021471  1.0000
  H   H847      1.0  0.6494038458530295  0.5062512085771194  0.20626345841057256  1.0000
  H   H848      1.0  0.6528239395642459  0.5075585593381412  0.23891897786944008  1.0000
  C   C1145     1.0  0.23383309290033424  0.9056398181335197  0.3388235665400726  1.0000
  C   C1146     1.0  0.20757097925580006  0.8794769098637408  0.34599563660716903  1.0000
  H   H849      1.0  0.2401260301577521  0.9046110786444016  0.31943550371871454  1.0000
  H   H850      1.0  0.2299080085308423  0.9226253497644757  0.3381271172151909  1.0000
  H   H851      1.0  0.19082326872724076  0.8783473775956574  0.33505420431654864  1.0000
  H   H852      1.0  0.20297114581829062  0.8814462678917871  0.3668095775727835  1.0000
  C   C1147     1.0  0.2649176892559537  0.9124026378690618  0.17514905132966055  1.0000
  C   C1148     1.0  0.24569754957552561  0.9032586805842376  0.1518459345179299  1.0000
  H   H853      1.0  0.25716094759186264  0.8967661048517389  0.18986663573972995  1.0000
  H   H854      1.0  0.2634099678886356  0.9286114181703691  0.18413887353440073  1.0000
  H   H855      1.0  0.22778319906083314  0.9025808299666408  0.15928882443392176  1.0000
  H   H856      1.0  0.2547836253106608  0.9192260592489809  0.1371803413109436  1.0000
  C   C1149     1.0  0.2972142231095703  0.8840613390930321  0.4962269338741267  1.0000
  C   C1150     1.0  0.30681132963751623  0.8984128811420573  0.022918984740553205  1.0000
  H   H857      1.0  0.27511861793173237  0.8715579129568884  0.49583699985100355  1.0000
  H   H858      1.0  0.30228909751264793  0.8680964210473007  0.494535279803662  1.0000
  H   H859      1.0  0.2952943638440978  0.9086508390137229  0.02644043672314755  1.0000
  H   H860      1.0  0.30045420655949856  0.8828439776275918  0.03825466163567396  1.0000
  C   C1151     1.0  0.37847177639596497  0.872480445988836  0.22794844602485528  1.0000
  C   C1152     1.0  0.3566563246043553  0.8637153674825204  0.2489117647008205  1.0000
  H   H861      1.0  0.3749138086406965  0.8548737537744413  0.2164909816439326  1.0000
  H   H862      1.0  0.3978304647421579  0.8779446308868523  0.23652311459303643  1.0000
  H   H863      1.0  0.35185262707175796  0.8436894903180688  0.255662861220565  1.0000
  H   H864      1.0  0.3385187887577514  0.8610082718038273  0.23992582243660887  1.0000
  C   C1153     1.0  0.7452733055328166  0.8924050519713898  0.3114738657540503  1.0000
  C   C1154     1.0  0.7421263790274875  0.9028033533909141  0.28549184400435557  1.0000
  H   H865      1.0  0.7633126999093026  0.8914167562087826  0.3099917284721294  1.0000
  H   H866      1.0  0.7483987310749989  0.9070505574443429  0.32730402311069257  1.0000
  H   H867      1.0  0.7413750283909243  0.8897544907346756  0.26984598382282127  1.0000
  H   H868      1.0  0.7610174780317903  0.9212601906142058  0.2823956514625417  1.0000
  C   C1155     1.0  0.5289680302991456  0.9732953167011474  0.36829947473576163  1.0000
  C   C1156     1.0  0.50329660238565  0.9449303255853972  0.3688174467963283  1.0000
  H   H869      1.0  0.5291992461069289  0.9865526485559764  0.3842285705758829  1.0000
  H   H870      1.0  0.5289121309991244  0.9837359351622326  0.3502849108615239  1.0000
  H   H871      1.0  0.4997260656331637  0.936327041626784  0.38907073635556166  1.0000
  H   H872      1.0  0.5064648175735682  0.9309094585055907  0.35719508494294056  1.0000
  C   C1157     1.0  0.7560374503728562  0.893550540315894  0.07176163404354027  1.0000
  C   C1158     1.0  0.7505642714433548  0.914707229352857  0.08365753170419347  1.0000
  H   H873      1.0  0.7582665880302403  0.8955450835691234  0.05040721736229332  1.0000
  H   H874      1.0  0.7762304277943668  0.8988490380223375  0.07852243041460621  1.0000
  H   H875      1.0  0.7694576664075322  0.9327542316037523  0.08463236676200141  1.0000
  H   H876      1.0  0.7429481423983824  0.9095136943860085  0.10393351891551916  1.0000
  C   C1159     1.0  0.6319489506276471  0.8700562897446318  0.43414206550591317  1.0000
  C   C1160     1.0  0.6428074684394435  0.8847033769694732  0.407702210773845  1.0000
  H   H877      1.0  0.633975514623653  0.8522824429165117  0.43442336119423597  1.0000
  H   H878      1.0  0.609999443251949  0.8616387394236155  0.43622365359950116  1.0000
  H   H879      1.0  0.634130100027009  0.8687095192956161  0.39261312205816323  1.0000
  H   H880      1.0  0.6647373496303468  0.8930429323799897  0.40631513203487457  1.0000
  C   C1161     1.0  0.5874315062779802  0.8720211137612728  0.17329851369455013  1.0000
  C   C1162     1.0  0.5817260704858642  0.8803057172776377  0.20031744955051026  1.0000
  H   H881      1.0  0.6058475432113015  0.871247616844298  0.1738614930652484  1.0000
  H   H882      1.0  0.5709701385336955  0.8512638804232336  0.1693062488876587  1.0000
  H   H883      1.0  0.5690276879185379  0.8609503303896494  0.21003282063409656  1.0000
  H   H884      1.0  0.5685191995647958  0.8883798322833164  0.19837941925648017  1.0000
  C   C1163     1.0  0.503355078019663  0.9280420185145898  0.040449931986749496  1.0000
  C   C1164     1.0  0.505829563471103  0.9517148386405369  0.02564640689397185  1.0000
  H   H885      1.0  0.4986925659936678  0.9120312505796164  0.026907387565763205  1.0000
  H   H886      1.0  0.4862501908878839  0.9200862246778881  0.05402448591709664  1.0000
  H   H887      1.0  0.5080163270715455  0.9489329254019006  0.004572685951121147  1.0000
  H   H888      1.0  0.524026317811148  0.970732567508664  0.029855948370464257  1.0000
  C   C1165     1.0  0.9100919670426209  0.2107204790649731  0.49959472225294177  1.0000
  C   C1166     1.0  0.925888831689842  0.22609298528574986  0.475154976863361  1.0000
  H   H889      1.0  0.9224728320002276  0.22036386067996439  0.01637740500935247  1.0000
  H   H890      1.0  0.9078577714624438  0.19094174602813566  0.4988381338498669  1.0000
  H   H891      1.0  0.9140336558937636  0.21538439252553315  0.4572471113536594  1.0000
  H   H892      1.0  0.9450034258911424  0.2255183731129275  0.472762993527486  1.0000
  C   C1167     1.0  0.686040616258004  0.08325444853099202  0.39375964448436124  1.0000
  C   C1168     1.0  0.6703141148362969  0.09769491534560085  0.3882190894095365  1.0000
  H   H893      1.0  0.6914869965073023  0.08554573271767746  0.41454642586627566  1.0000
  H   H894      1.0  0.7050748372452202  0.09489510603673257  0.38347004220254377  1.0000
  H   H895      1.0  0.6649058408581072  0.09583535500389784  0.36699193477762715  1.0000
  H   H896      1.0  0.6511847079643501  0.08867681153597129  0.39901308396007046  1.0000
  C   C1169     1.0  0.7325891050653066  0.0748915866248707  0.036307125487348824  1.0000
  C   C1170     1.0  0.7330826136351819  0.06200589971767365  0.010037582185638438  1.0000
  H   H897      1.0  0.7403843621562153  0.06826596525584731  0.05183231951844398  1.0000
  H   H898      1.0  0.7114122803835697  0.06801727773661312  0.042114814467566944  1.0000
  H   H899      1.0  0.7222192995048436  0.06654592094767996  0.4957050818730315  1.0000
  H   H900      1.0  0.7534910129361446  0.07259601333128188  0.0025163174709691423  1.0000
  C   C1171     1.0  0.931614177356174  0.22727525569150567  0.18902468864502617  1.0000
  C   C1172     1.0  0.9424443886291975  0.24945347107537164  0.16831841602907996  1.0000
  H   H901      1.0  0.9271493217163844  0.20825406091121926  0.17904024368578225  1.0000
  H   H902      1.0  0.94864181562349  0.23156132023727985  0.20122729560446434  1.0000
  H   H903      1.0  0.9267038871952817  0.24432007203242717  0.15357929794907693  1.0000
  H   H904      1.0  0.9583378568513525  0.24920717470974546  0.15616974024298924  1.0000
  C   C1173     1.0  0.6488995058575159  0.057096556313326545  0.13217832198148693  1.0000
  C   C1174     1.0  0.6797975708442067  0.06832292286031595  0.13334812405085644  1.0000
  H   H905      1.0  0.6410642120671763  0.05708162588322874  0.15181120905019904  1.0000
  H   H906      1.0  0.6445303823631925  0.07061947779620108  0.12043820393305656  1.0000
  H   H907      1.0  0.6877714056804871  0.07018433438133691  0.11334334468247911  1.0000
  H   H908      1.0  0.6835572751780092  0.05339716451405163  0.1422900289900686  1.0000
  C   C1175     1.0  0.7710910421039106  0.07254777674606998  0.2662609187744052  1.0000
  C   C1176     1.0  0.7514705458494322  0.05991024740326312  0.24375920367885456  1.0000
  H   H909      1.0  0.7831642386045609  0.06286037504929076  0.26891673806622424  1.0000
  H   H910      1.0  0.7576909513789275  0.06725909967254337  0.28392628800106995  1.0000
  H   H911      1.0  0.7619576945390077  0.06315344096540718  0.2247280953861266  1.0000
  H   H912      1.0  0.7418312175287802  0.07173648107202359  0.24148167858857292  1.0000
  C   C1177     1.0  0.8591842869323713  0.26466609961714466  0.3379020806645328  1.0000
  C   C1178     1.0  0.8570412478048784  0.25541663036922824  0.3669201558778483  1.0000
  H   H913      1.0  0.8801309004216085  0.28014761912621217  0.33486796717117634  1.0000
  H   H914      1.0  0.8485450819480316  0.275308365644543  0.33539757905332873  1.0000
  H   H915      1.0  0.8652225672900495  0.241720261280944  0.369804891660854  1.0000
  H   H916      1.0  0.8702563356709254  0.27208381470958704  0.379722019651927  1.0000
  C   C1179     1.0  0.8106988632260104  0.26468776114310566  0.12100467525023052  1.0000
  C   C1180     1.0  0.7975865215906703  0.26555785303574275  0.09522576838720734  1.0000
  H   H917      1.0  0.8168544283315795  0.2829605502660691  0.13181205559558815  1.0000
  H   H918      1.0  0.8296410595629009  0.2647710121447591  0.11617259731592605  1.0000
  H   H919      1.0  0.8086498781427771  0.28616416922580834  0.08592710291639145  1.0000
  H   H920      1.0  0.7776017798014344  0.26268065449223593  0.09827695361888958  1.0000
  C   C1181     1.0  0.4050785586069622  0.23329142017486437  0.49762565243468293  1.0000
  C   C1182     1.0  0.421361336345579  0.25488058585308004  0.01832319518443981  1.0000
  H   H921      1.0  0.3960322545546732  0.24212611817651358  0.48482184869033995  1.0000
  H   H922      1.0  0.3879862576436636  0.2164410622518787  0.007806616381699882  1.0000
  H   H923      1.0  0.40631005859938724  0.25429943373204905  0.0316354830939015  1.0000
  H   H924      1.0  0.4338971088989759  0.2498662189062788  0.029904641624098047  1.0000
  C   C1183     1.0  0.38054931476762227  0.08172104834584322  0.4282329160808726  1.0000
  C   C1184     1.0  0.39379326101368395  0.06575903068945811  0.42052153428030237  1.0000
  H   H925      1.0  0.3711849024761406  0.07524832403235486  0.4472019453251431  1.0000
  H   H926      1.0  0.3648675633761389  0.07763743093644719  0.41395667490593013  1.0000
  H   H927      1.0  0.40938443915805656  0.06954405153532171  0.43432636268102126  1.0000
  H   H928      1.0  0.405585903034868  0.0739774318803562  0.4024604111197216  1.0000
  C   C1185     1.0  0.5081512240051438  0.0932042408607808  0.018059359228495775  1.0000
  C   C1186     1.0  0.47792179335459006  0.0827265854167584  0.014483994031401213  1.0000
  H   H929      1.0  0.5133416069874763  0.08075297482744222  0.005911265433484303  1.0000
  H   H930      1.0  0.5117489512741051  0.09116366908838588  0.03915810578775586  1.0000
  H   H931      1.0  0.47033205598057354  0.09447300841963238  0.026121117617644695  1.0000
  H   H932      1.0  0.47371655054573325  0.08419860619065764  0.49421518471005343  1.0000
  C   C1187     1.0  0.6800895183919452  0.24725721771420747  0.4273288899377113  1.0000
  C   C1188     1.0  0.6531923630885614  0.22619757316733194  0.4156405690953377  1.0000
  H   H933      1.0  0.677567726179033  0.2515008981732981  0.4471728457711787  1.0000
  H   H934      1.0  0.6871130018893827  0.26642122935498286  0.41697332866690784  1.0000
  H   H935      1.0  0.6519204552464973  0.20664544645415264  0.41454642586627566  1.0000
  H   H936      1.0  0.6525358612402143  0.23229561351942207  0.3956123160867624  1.0000
  C   C1189     1.0  0.41407040193687983  0.21830276106592567  0.14889465775485883  1.0000
  C   C1190     1.0  0.4176884069418151  0.24618665539698878  0.14293118916241787  1.0000
  H   H937      1.0  0.40150984933761086  0.2092013286293503  0.16591673284188352  1.0000
  H   H938      1.0  0.40213876598045983  0.20521317180213405  0.1328897090774037  1.0000
  H   H939      1.0  0.3988581336213719  0.24403625216295283  0.136952394804889  1.0000
  H   H940      1.0  0.4309424501835308  0.2552371372363769  0.12562937036328192  1.0000
  C   C1191     1.0  0.46220458624250915  0.08501485953109013  0.14832411250012986  1.0000
  C   C1192     1.0  0.4562273207345169  0.07135528554386375  0.17505670874508011  1.0000
  H   H941      1.0  0.444022213225275  0.07563469130113107  0.13702863563627576  1.0000
  H   H942      1.0  0.47465080687062605  0.07975929543274117  0.13587008539443915  1.0000
  H   H943      1.0  0.4744253151906766  0.07571962152922233  0.18504425765674698  1.0000
  H   H944      1.0  0.44766346268783835  0.08060582434948356  0.18785372259349808  1.0000
  C   C1193     1.0  0.4815015554269346  0.054950799085545565  0.2831192603711235  1.0000
  C   C1194     1.0  0.4695504113541028  0.07119579369618363  0.27381128304303903  1.0000
  H   H945      1.0  0.49623488985219033  0.0659145504533547  0.29856724358569975  1.0000
  H   H946      1.0  0.49368834424217567  0.05392080026332735  0.2672425437281382  1.0000
  H   H947      1.0  0.45459653378463044  0.06991774302771128  0.2877984686486016  1.0000
  H   H948      1.0  0.4570816660916431  0.060873925082922  0.2560566751842167  1.0000
  C   C1195     1.0  0.5271664488456571  0.2608825652620987  0.3194549034213574  1.0000
  C   C1196     1.0  0.534215501530729  0.26111581035185055  0.3481548235113287  1.0000
  H   H949      1.0  0.5064192651638326  0.25718544439636165  0.31763327134318503  1.0000
  H   H950      1.0  0.5408752759969573  0.2813036956606712  0.3119452785282738  1.0000
  H   H951      1.0  0.5454140199705623  0.28187849797311604  0.3554297120024327  1.0000
  H   H952      1.0  0.5483505813067718  0.2536674044420296  0.3502247717833308  1.0000
  C   C1197     1.0  0.5967191680979212  0.27807457526408363  0.08896412636514435  1.0000
  C   C1198     1.0  0.5884082273589902  0.28686625064600635  0.06404889426378506  1.0000
  H   H953      1.0  0.608396561963346  0.2958851566793541  0.10026639312492346  1.0000
  H   H954      1.0  0.6099613814014934  0.2703971768503782  0.08407443131399034  1.0000
  H   H955      1.0  0.5720569620303029  0.29071298846538945  0.06834476441703856  1.0000
  H   H956      1.0  0.6061428010721249  0.3068747745242212  0.057735843029718244  1.0000
  C   C1199     1.0  0.6433507258565104  0.18974171521360705  0.23896165721525456  1.0000
  C   C1200     1.0  0.6414848164455891  0.1634490328244763  0.2306585844840745  1.0000
  H   H957      1.0  0.6535412381171932  0.20365978776158802  0.22205869630245753  1.0000
  H   H958      1.0  0.6561793300352424  0.19870858468728375  0.2557230002987581  1.0000
  H   H959      1.0  0.6258519948325973  0.15317778284220357  0.2152920800205987  1.0000
  H   H960      1.0  0.6344261710967196  0.14879452395337844  0.24732292905436337  1.0000
  C   C1201     1.0  0.5315788163347477  0.2411216635704775  0.8038323228829947  1.0000
  C   C1202     1.0  0.5553730885367795  0.24831041854061991  0.7919189654899628  1.0000
  C   C1203     1.0  0.5590031637784711  0.23034218936083994  0.7775360259504843  1.0000
  C   C1204     1.0  0.5385639231087732  0.20428943729300894  0.7752041816928024  1.0000
  C   C1205     1.0  0.5145478847584356  0.19677928145449547  0.7881651230285532  1.0000
  C   C1206     1.0  0.5105823696658555  0.21486890492607186  0.8016886557409493  1.0000
  H   H961      1.0  0.5720308826975784  0.26932625322657444  0.7936125595306919  1.0000
  H   H962      1.0  0.577702416339298  0.23775665148765868  0.7673744617061102  1.0000
  H   H963      1.0  0.49794249048198874  0.17711422524467244  0.786779984259847  1.0000
  H   H964      1.0  0.49148038074788364  0.2088694026134487  0.810234224755166  1.0000
  C   C1207     1.0  0.5189599713938966  0.14392201915977457  0.7851232496541396  1.0000
  C   C1208     1.0  0.5232536569556817  0.1540858363530025  0.759822157467212  1.0000
  C   C1209     1.0  0.5121165767213711  0.13603950743032564  0.7399937213958592  1.0000
  C   C1210     1.0  0.4966410537532793  0.10956621082523335  0.7443334348770858  1.0000
  C   C1211     1.0  0.490347098043975  0.10038139138099755  0.7692853324164401  1.0000
  C   C1212     1.0  0.5021318104995576  0.11741653588255573  0.7898005179613534  1.0000
  C   C1213     1.0  0.5411310574743996  0.18554064454537308  0.7546152772778459  1.0000
  C   C1214     1.0  0.5691054886423256  0.18773278804109644  0.7510340921699585  1.0000
  C   C1215     1.0  0.5755806358544674  0.180311869018709  0.7277990683145046  1.0000
  C   C1216     1.0  0.5992982769132538  0.1805062398994178  0.7243226416008891  1.0000
  C   C1217     1.0  0.6169099057134152  0.18785223583681543  0.744236436363871  1.0000
  C   C1218     1.0  0.6115226348395529  0.19608515775228563  0.7671513651257161  1.0000
  C   C1219     1.0  0.5876053514085207  0.19550866354707347  0.7705230334450599  1.0000
  C   C1220     1.0  0.5049222223569798  0.1845769477805207  0.7262994713002051  1.0000
  C   C1221     1.0  0.49658059108452707  0.1888279309036812  0.7030198281286724  1.0000
  C   C1222     1.0  0.5151108342563705  0.20437626182529295  0.6838333282177742  1.0000
  C   C1223     1.0  0.541630972426673  0.2176795774106947  0.6903719979935787  1.0000
  C   C1224     1.0  0.5500585300373911  0.21411039792693984  0.7140136396164287  1.0000
  C   C1225     1.0  0.531788970223728  0.1952626733979314  0.7310310587748189  1.0000
  C   C1226     1.0  0.505443810175746  0.20221428555028675  0.654662189350606  1.0000
  C   C1227     1.0  0.47427470222216284  0.11561453693512747  0.6499395257392078  1.0000
  C   C1228     1.0  0.45741318151161187  0.12580669661535676  0.6501940498378832  1.0000
  C   C1229     1.0  0.4668909627513868  0.1523670546405731  0.6513657918775171  1.0000
  C   C1230     1.0  0.49438552912919403  0.17093328798194  0.6504136544718013  1.0000
  C   C1231     1.0  0.5110896214932064  0.15999215027198416  0.651846904503062  1.0000
  C   C1232     1.0  0.5009034089319048  0.1327161513603987  0.6507927246614444  1.0000
  C   C1233     1.0  0.5290310308700801  0.22228360194723695  0.6349517034713221  1.0000
  C   C1234     1.0  0.5418426800013586  0.24935407036282045  0.6389189426618042  1.0000
  C   C1235     1.0  0.5636115558074429  0.2669099791846344  0.6251038324186846  1.0000
  C   C1236     1.0  0.5723374718306773  0.2575445127256948  0.6049714030069167  1.0000
  C   C1237     1.0  0.5594888940633391  0.23090060482149677  0.5998089481366029  1.0000
  C   C1238     1.0  0.538440499678433  0.21310009515095055  0.6152860309051434  1.0000
  C   C1239     1.0  0.4689672424667882  0.20505514560566673  0.6305508809267703  1.0000
  C   C1240     1.0  0.4478562690559734  0.20882432009351296  0.6291711740748043  1.0000
  C   C1241     1.0  0.4402840646322752  0.2188397598671191  0.6493305690732457  1.0000
  C   C1242     1.0  0.45472378812382086  0.22593595543387346  0.6713474855997493  1.0000
  C   C1243     1.0  0.4764968014795407  0.22291638408036984  0.6734003621334256  1.0000
  C   C1244     1.0  0.4824843380036688  0.20967918549018646  0.6530463881174752  1.0000
  H   H965      1.0  0.5285054179538308  0.15620798289309049  0.8015722575250918  1.0000
  H   H966      1.0  0.5146447392576209  0.14311308544681298  0.7203864419346357  1.0000
  H   H967      1.0  0.48929480936306696  0.09686361259188384  0.7276593904554752  1.0000
  H   H968      1.0  0.4979292589439418  0.11087271147187275  0.8101139465987797  1.0000
  H   H969      1.0  0.5624904825488138  0.1750160909011263  0.711458698778353  1.0000
  H   H970      1.0  0.6032367592733864  0.17492926175633475  0.7056252081936197  1.0000
  H   H971      1.0  0.6255398769610203  0.2018927771112608  0.782628447894257  1.0000
  H   H972      1.0  0.584063044434803  0.20240184890640134  0.7886792151485912  1.0000
  H   H973      1.0  0.49046077025503976  0.17178472762383468  0.740579592415676  1.0000
  H   H974      1.0  0.4753239049239946  0.17919120260322877  0.699432823109992  1.0000
  H   H975      1.0  0.5570456521804685  0.23116828719521407  0.6769745633483616  1.0000
  H   H976      1.0  0.571660192219453  0.22399572138733329  0.7162484853608958  1.0000
  H   H977      1.0  0.4359312884448488  0.11322754070439978  0.6494785888044112  1.0000
  H   H978      1.0  0.4516539643163266  0.15777974978135065  0.6527212491011795  1.0000
  H   H979      1.0  0.5323871273155284  0.17344479924011055  0.6532169115037068  1.0000
  H   H980      1.0  0.5151207546914038  0.12588560699785709  0.6520814469080153  1.0000
  H   H981      1.0  0.5350717188893233  0.2573871572673542  0.6541744808261625  1.0000
  H   H982      1.0  0.5728043312704522  0.28754331912782605  0.6291781579677556  1.0000
  H   H983      1.0  0.5660977266678909  0.22402714966387563  0.5829655443109196  1.0000
  H   H984      1.0  0.528767140277287  0.19228462520377518  0.6114840771811794  1.0000
  H   H985      1.0  0.47372541325495937  0.1966397865376246  0.6135536374591286  1.0000
  H   H986      1.0  0.43769570079196923  0.2042321305380419  0.6110572837230346  1.0000
  H   H987      1.0  0.4485416805937773  0.2338619470018356  0.6876676794451523  1.0000
  H   H988      1.0  0.4884307657345915  0.22942210247874528  0.6905039159715507  1.0000
  C   C1245     1.0  0.5806528517809724  0.2660036150400661  0.5425099864104037  1.0000
  C   C1246     1.0  0.6006965865376056  0.2650743895613685  0.5294159631145223  1.0000
  C   C1247     1.0  0.5950706883718548  0.2459709645094577  0.5109086288343067  1.0000
  C   C1248     1.0  0.5689448762982187  0.2269664301706745  0.5050673783685161  1.0000
  C   C1249     1.0  0.5493777462369223  0.22796131535634268  0.5200769283033619  1.0000
  C   C1250     1.0  0.5547596679364297  0.24726592515922274  0.5380276851147515  1.0000
  H   H989      1.0  0.621140564706055  0.2794754624285558  0.5331381840606239  1.0000
  H   H990      1.0  0.6111610811535012  0.24725863123887437  0.9992144880811399  1.0000
  H   H991      1.0  0.5286085691820719  0.21372986248925627  0.5163153259608951  1.0000
  H   H992      1.0  0.5395389051237449  0.25011928555526963  0.5474184991731214  1.0000
  C   C1251     1.0  0.5412353589363599  0.1687162677405905  0.5194832974024879  1.0000
  C   C1252     1.0  0.5500670456937601  0.17542677537143309  0.9942501041748106  1.0000
  C   C1253     1.0  0.5479119845947286  0.15502025425688254  0.9784238267586969  1.0000
  C   C1254     1.0  0.5339635318847915  0.12882435723352575  0.9860595497189596  1.0000
  C   C1255     1.0  0.524640285449795  0.12245330748915609  0.5110211471096358  1.0000
  C   C1256     1.0  0.5293755889875961  0.1425829798680262  0.5279351838117863  1.0000
  C   C1257     1.0  0.5607854593718368  0.20567363548776343  0.982107830290592  1.0000
  C   C1258     1.0  0.5863630853992271  0.21279110704706888  0.9638022708767102  1.0000
  C   C1259     1.0  0.5914368355602643  0.22644280473907766  0.940592466634692  1.0000
  C   C1260     1.0  0.612166498689955  0.23082534626493798  0.9244984733221058  1.0000
  C   C1261     1.0  0.6291490504494953  0.22173700320516346  0.9318160411590243  1.0000
  C   C1262     1.0  0.6249883184412894  0.20893102990868284  0.9549482465904705  1.0000
  C   C1263     1.0  0.6045023424705936  0.20570096109949093  0.971069399486757  1.0000
  C   C1264     1.0  0.5198649899205499  0.1821209213188569  0.9505018347447078  1.0000
  C   C1265     1.0  0.4972674451172987  0.18004498364287932  0.9405051679727989  1.0000
  C   C1266     1.0  0.49126790925254976  0.2003394335864146  0.9434888422392838  1.0000
  C   C1267     1.0  0.5108086328143496  0.22422375152756377  0.9542091179197744  1.0000
  C   C1268     1.0  0.5332470826805945  0.22592074111862084  0.9647916557115004  1.0000
  C   C1269     1.0  0.5369636240352295  0.20437327503291505  0.9653484271773527  1.0000
  C   C1270     1.0  0.46330380341268773  0.19603489714016795  0.9320740572041752  1.0000
  C   C1271     1.0  0.40087075006514455  0.11172807984618978  0.9289177255841684  1.0000
  C   C1272     1.0  0.4166577295993289  0.12211325494716528  0.9502496386103496  1.0000
  C   C1273     1.0  0.43564020645613805  0.14836405535063835  0.9509480279054956  1.0000
  C   C1274     1.0  0.44008520858032724  0.16536401558949002  0.9300273885753448  1.0000
  C   C1275     1.0  0.42213321095918027  0.15520685385953603  0.9096014416625892  1.0000
  C   C1276     1.0  0.4034858549493479  0.12867849627311903  0.9085868372143632  1.0000
  C   C1277     1.0  0.4750545899972121  0.2124704031959543  0.9057098613124146  1.0000
  C   C1278     1.0  0.48441170805520367  0.2394446173254225  0.903610813486448  1.0000
  C   C1279     1.0  0.502648910929304  0.2549904979529794  0.8848163815659639  1.0000
  C   C1280     1.0  0.5111412673614928  0.24377675717850344  0.8664894824791748  1.0000
  C   C1281     1.0  0.5003238396875064  0.21679815657539908  0.8668425570672765  1.0000
  C   C1282     1.0  0.48276951497743464  0.20125289887105716  0.8860657224161694  1.0000
  C   C1283     1.0  0.43169722709782576  0.2142236997639189  0.9398378182018815  1.0000
  C   C1284     1.0  0.41746777834298876  0.22207709157911512  0.9551655232600715  1.0000
  C   C1285     1.0  0.42055129335418556  0.22358528004507416  0.9811378451584448  1.0000
  C   C1286     1.0  0.43727613921991243  0.2162774194714992  0.9922596946836445  1.0000
  C   C1287     1.0  0.45097393020113624  0.2079293673326838  0.9769746689712692  1.0000
  C   C1288     1.0  0.44878294636485244  0.20690387860338671  0.9503349973019785  1.0000
  H   H993      1.0  0.5447542255157265  0.18367836811181262  0.5336530521687677  1.0000
  H   H994      1.0  0.5552240736104482  0.1585923475186628  0.9584227333338218  1.0000
  H   H995      1.0  0.5288999686657347  0.113535411971696  0.9721499629239687  1.0000
  H   H996      1.0  0.5224913905144992  0.13837926697746986  0.5481560758676061  1.0000
  H   H997      1.0  0.5801235848683975  0.2352442544067204  0.9350674313219818  1.0000
  H   H998      1.0  0.6155638497098173  0.24192831118261246  0.9063830309941248  1.0000
  H   H999      1.0  0.6375223921086108  0.20124281604420508  0.9615460854593357  1.0000
  H   H1000     1.0  0.6016721705449384  0.19497265728395763  0.9895029969380822  1.0000
  H   H1001     1.0  0.5224394492394645  0.1654633611098  0.9467867916885838  1.0000
  H   H1002     1.0  0.4843581993135709  0.16241099496323436  0.9297266931843793  1.0000
  H   H1003     1.0  0.5066858644969561  0.2400840372510267  0.9549482465904705  1.0000
  H   H1004     1.0  0.5470313826862453  0.24466924703071088  0.9733740841607386  1.0000
  H   H1005     1.0  0.41484558746824785  0.10929698518662721  0.9665628485628011  1.0000
  H   H1006     1.0  0.4478668265573711  0.15536521196937908  0.96820212343613  1.0000
  H   H1007     1.0  0.423229821908725  0.16772068775369275  0.8932067529590371  1.0000
  H   H1008     1.0  0.39123236420876706  0.12179284018777012  0.8914433199887937  1.0000
  H   H1009     1.0  0.48063650318893947  0.24913391537045493  0.9197533060556415  1.0000
  H   H1010     1.0  0.511494355022848  0.2765303986344397  0.886001703397448  1.0000
  H   H1011     1.0  0.5080143353089812  0.20709349446780526  0.8548807004176372  1.0000
  H   H1012     1.0  0.47659752987467335  0.18058355642922042  0.8867020326628581  1.0000
  H   H1013     1.0  0.42865206538432277  0.2124261276395568  0.9189307586635809  1.0000
  H   H1014     1.0  0.40510066095616926  0.2282800711116289  0.9459700642073162  1.0000
  H   H1015     1.0  0.43985304191635227  0.21802089543134026  0.5126235625479428  1.0000
  H   H1016     1.0  0.4628464875465193  0.20094045011567532  0.9868820971110205  1.0000
  C   C1289     1.0  0.7928067440990673  0.241125241643756  0.6393529140099269  1.0000
  C   C1290     1.0  0.7805481273425472  0.24402850022825703  0.6611993071501989  1.0000
  C   C1291     1.0  0.7637389345972733  0.22212355478914703  0.6762672501899999  1.0000
  C   C1292     1.0  0.7584591032798343  0.19627878360759382  0.6698820320621013  1.0000
  C   C1293     1.0  0.7723486165295098  0.1944948775769389  0.6484428386803046  1.0000
  C   C1294     1.0  0.7893197175183144  0.21634991775073345  0.6341400199127415  1.0000
  H   H1017     1.0  0.7828146810270468  0.2630824539021502  0.6659285666604956  1.0000
  H   H1018     1.0  0.7541639440459517  0.2247729133468111  0.693330646643654  1.0000
  H   H1019     1.0  0.7700267293310074  0.17564089384011083  0.6426015882145141  1.0000
  H   H1020     1.0  0.7981305275306633  0.21295853396421469  0.617151506311289  1.0000
  C   C1295     1.0  0.7133802172837609  0.14186591267043688  0.6492733399504491  1.0000
  C   C1296     1.0  0.7239204375810835  0.14337043175851047  0.6737119213578713  1.0000
  C   C1297     1.0  0.718820843699511  0.1198575932134416  0.6855664976518948  1.0000
  C   C1298     1.0  0.7048789145379384  0.09602836314234624  0.6725229135828853  1.0000
  C   C1299     1.0  0.6951384594541535  0.09457805733519781  0.6480920920565202  1.0000
  C   C1300     1.0  0.6998763041097285  0.11813451203804716  0.6360671863732913  1.0000
  C   C1301     1.0  0.7399942214346296  0.17164586378416793  0.6887276791975627  1.0000
  C   C1302     1.0  0.7155094881281279  0.17264592843765456  0.7012447553368429  1.0000
  C   C1303     1.0  0.7048439268460591  0.16104921729313043  0.7250404305986778  1.0000
  C   C1304     1.0  0.6812793497430282  0.15810112542587282  0.7340477125357969  1.0000
  C   C1305     1.0  0.6680107417424759  0.1677625115227363  0.720322422915914  1.0000
  C   C1306     1.0  0.6785835971616953  0.1800460125357233  0.6967013449778655  1.0000
  C   C1307     1.0  0.7015391713645047  0.18192481622685855  0.6874696084811678  1.0000
  C   C1308     1.0  0.7792141856715344  0.16402830796381238  0.6989827500086757  1.0000
  C   C1309     1.0  0.8011124139652703  0.16949920754642378  0.7126905798961799  1.0000
  C   C1310     1.0  0.8080891321332376  0.18506427324994057  0.7346607431393138  1.0000
  C   C1311     1.0  0.7905242559585655  0.19272706315116175  0.7436195258198253  1.0000
  C   C1312     1.0  0.7694430365101783  0.18868588086193955  0.7292928454180113  1.0000
  C   C1313     1.0  0.7626558857416814  0.1735799026281027  0.7069928872299472  1.0000
  C   C1314     1.0  0.8327500339464508  0.1886629154057544  0.7517499411974831  1.0000
  C   C1315     1.0  0.7889833933835819  0.10280610853807476  0.7643112486587893  1.0000
  C   C1316     1.0  0.8112851913620023  0.11332424071218553  0.7490572624706425  1.0000
  C   C1317     1.0  0.8269622781591  0.14041980091830827  0.7475479656050216  1.0000
  C   C1318     1.0  0.8202586839777951  0.15744469270858277  0.759921095950691  1.0000
  C   C1319     1.0  0.7981653127660275  0.14621681408497317  0.7758812313150409  1.0000
  C   C1320     1.0  0.7825015639885553  0.11935833809750489  0.7777048033634777  1.0000
  C   C1321     1.0  0.8407240848007834  0.20867729149067923  0.7749073662423652  1.0000
  C   C1322     1.0  0.8448915812689645  0.23399704281848208  0.771374680391085  1.0000
  C   C1323     1.0  0.8493373027881284  0.25019694277698434  0.7918704662333554  1.0000
  C   C1324     1.0  0.8508759588731307  0.24292340837306908  0.8165759875491446  1.0000
  C   C1325     1.0  0.8482996058548903  0.21819291490588935  0.820415188702183  1.0000
  C   C1326     1.0  0.8438531538013799  0.2017703082265951  0.7997234658632192  1.0000
  C   C1327     1.0  0.8804478511171013  0.1978818881816916  0.744052139188763  1.0000
  C   C1328     1.0  0.9036995995415626  0.20706283830569366  0.7297875378354064  1.0000
  C   C1329     1.0  0.9067476978841832  0.21969114031740533  0.7060946809975789  1.0000
  C   C1330     1.0  0.8862107445348348  0.22282998450866087  0.6972988558192682  1.0000
  C   C1331     1.0  0.8638611414811211  0.21530116822055226  0.7126653602827441  1.0000
  C   C1332     1.0  0.8603214918688276  0.20104058860418478  0.7354697107395246  1.0000
  H   H1021     1.0  0.7172332212415249  0.1595692696177092  0.6394212009632301  1.0000
  H   H1022     1.0  0.7262880291763462  0.12048092692313273  0.7050218774414242  1.0000
  H   H1023     1.0  0.7008855331320201  0.07780089303616619  0.682586315331886  1.0000
  H   H1024     1.0  0.6922842827625751  0.1175787945610081  0.61722968711294  1.0000
  H   H1025     1.0  0.7134786681336397  0.15226857419985632  0.7367791906679234  1.0000
  H   H1026     1.0  0.6737324437972649  0.14848704583611336  0.7524968297492363  1.0000
  H   H1027     1.0  0.6675871632807154  0.18664823707384598  0.685499180683724  1.0000
  H   H1028     1.0  0.7074336493530164  0.18943006179613872  0.6685618822972488  1.0000
  H   H1029     1.0  0.7748607824699627  0.15257065856157442  0.6809790499679179  1.0000
  H   H1030     1.0  0.8132490190930113  0.16169087023591522  0.7059084438522067  1.0000
  H   H1031     1.0  0.7938850127585145  0.20481909279322238  0.7604778674165437  1.0000
  H   H1032     1.0  0.7581657765834373  0.1986739517755639  0.7353765921668383  1.0000
  H   H1033     1.0  0.8172404804755622  0.10093436610019942  0.7386629017945532  1.0000
  H   H1034     1.0  0.8439955547506138  0.14730607506663237  0.734569564536892  1.0000
  H   H1035     1.0  0.7915322763796806  0.15811741513053523  0.7856315218633846  1.0000
  H   H1036     1.0  0.7645449830160962  0.11106579717442368  0.7892068870604791  1.0000
  H   H1037     1.0  0.8434742817406966  0.24112574776481357  0.7520506365884486  1.0000
  H   H1038     1.0  0.8520040510774394  0.2695482450397069  0.7890439295582785  1.0000
  H   H1039     1.0  0.8492686020298423  0.21132167787285466  0.8396655136347763  1.0000
  H   H1040     1.0  0.8416837814157532  0.18247767592192513  0.8035335674622933  1.0000
  H   H1041     1.0  0.8784399800640353  0.18714763694324132  0.7618513663636641  1.0000
  H   H1042     1.0  0.9186065792006429  0.20386400886954148  0.7380110717857501  1.0000
  H   H1043     1.0  0.8881427257742407  0.2324053599583782  0.678606466334686  1.0000
  H   H1044     1.0  0.8494189727401319  0.22015632791752104  0.7052915333081611  1.0000
  C   C1333     1.0  0.8286289556644504  0.24262495127871203  0.8793476053909182  1.0000
  C   C1334     1.0  0.819956827016756  0.2581901977496564  0.8906615119722828  1.0000
  C   C1335     1.0  0.7951697096606507  0.24647555008390598  0.9023886322199426  1.0000
  C   C1336     1.0  0.778151417136432  0.21860379602892374  0.9026854476703797  1.0000
  C   C1337     1.0  0.7876478047454606  0.2036829160593881  0.8906576320317544  1.0000
  C   C1338     1.0  0.8122444362760892  0.215307970575201  0.8795105628931189  1.0000
  H   H1045     1.0  0.8314465924532253  0.2796224272534657  0.8905974929535614  1.0000
  H   H1046     1.0  0.789601867638655  0.2591989782652395  0.9131729269191552  1.0000
  H   H1047     1.0  0.776187263321444  0.18194023607886728  0.8918992130009028  1.0000
  H   H1048     1.0  0.818648308749785  0.20304307541027322  0.8706274390529148  1.0000
  C   C1339     1.0  0.723458893719335  0.17016500132112466  0.8854720915152955  1.0000
  C   C1340     1.0  0.7280432841218074  0.17655541967902189  0.9116927296074985  1.0000
  C   C1341     1.0  0.7106402253540671  0.15787535886331258  0.9297189333033221  1.0000
  C   C1342     1.0  0.6908999042190608  0.13304126022293336  0.9218717535842513  1.0000
  C   C1343     1.0  0.6877843162818302  0.12648126966036508  0.8962990655603226  1.0000
  C   C1344     1.0  0.7032581261884153  0.14546289166045123  0.8781913831133987  1.0000
  C   C1345     1.0  0.7519228906917023  0.20493167620624564  0.9204342356184089  1.0000
  C   C1346     1.0  0.7362880744409497  0.22035603611086663  0.9228029393111126  1.0000
  C   C1347     1.0  0.7209010546496275  0.21684317009706108  0.9444239079066735  1.0000
  C   C1348     1.0  0.7043832932223242  0.2272776073833295  0.946424017249161  1.0000
  C   C1349     1.0  0.7006496436865789  0.2390751025930719  0.9250028655908222  1.0000
  C   C1350     1.0  0.7159871545782562  0.2430257259702649  0.903050162080067  1.0000
  C   C1351     1.0  0.7337580784727104  0.23411360827228292  0.9020277977507839  1.0000
  C   C1352     1.0  0.7676639027064769  0.18045084976266682  0.9500207221191627  1.0000
  C   C1353     1.0  0.7790459350121214  0.1776038228371159  0.9717580889305815  1.0000
  C   C1354     1.0  0.7888077368894629  0.19684162106080352  0.9912043508598685  1.0000
  C   C1355     1.0  0.7887470965563781  0.22016638925898196  0.985844213019623  1.0000
  C   C1356     1.0  0.7772920385511715  0.2231086101940341  0.9643318827588625  1.0000
  C   C1357     1.0  0.7653589487689144  0.20293855886007328  0.9463308986764748  1.0000
  C   C1358     1.0  0.799988387637741  0.19088020782127893  0.5172697913309279  1.0000
  C   C1359     1.0  0.7493074045940541  0.10548099253250681  0.5351485752455122  1.0000
  C   C1360     1.0  0.7762536127859708  0.11780466899076518  0.5391817734249802  1.0000
  C   C1361     1.0  0.792276862050204  0.14468461453933476  0.5335754533581959  1.0000
  C   C1362     1.0  0.7821658039653071  0.16009320681432793  0.5256607626739276  1.0000
  C   C1363     1.0  0.7547883119344844  0.14675734635388077  0.5234330768605913  1.0000
  C   C1364     1.0  0.7382138898051767  0.12002294439840876  0.527865926873351  1.0000
  C   C1365     1.0  0.7982723940093225  0.20892381814306374  0.5400726077703442  1.0000
  C   C1366     1.0  0.8194833856011569  0.23437893353116712  0.5428473472393646  1.0000
  C   C1367     1.0  0.8185880031860024  0.2524736737667928  0.5594472847968788  1.0000
  C   C1368     1.0  0.7966553348986317  0.24538283139128525  0.5750378558258806  1.0000
  C   C1369     1.0  0.7753727246174423  0.21988023860064088  0.573391403062574  1.0000
  C   C1370     1.0  0.7765016840894625  0.20187690688218377  0.5562672855396473  1.0000
  C   C1371     1.0  0.8471773271657373  0.20195624106037735  0.5327075106619505  1.0000
  C   C1372     1.0  0.8727833957069183  0.2068768253722104  0.528569748085237  1.0000
  C   C1373     1.0  0.8821506833662828  0.20724963506246533  0.5037113391537744  1.0000
  C   C1374     1.0  0.8661402963336367  0.20359719899702905  0.98230570725755  1.0000
  C   C1375     1.0  0.8410120779056568  0.19941470581824774  0.9869752156837065  1.0000
  C   C1376     1.0  0.830850674729362  0.19829836885222846  0.5118126549774679  1.0000
  H   H1049     1.0  0.7343887846699353  0.1853914841688497  0.8705905796178931  1.0000
  H   H1050     1.0  0.7133711312130404  0.16140929635653467  0.9505173545068222  1.0000
  H   H1051     1.0  0.6782793218271875  0.11880049991966629  0.9364836096149164  1.0000
  H   H1052     1.0  0.7001615761460671  0.14138654652427024  0.8577130570035071  1.0000
  H   H1053     1.0  0.7205175753893402  0.2040145100269385  0.9596856539758775  1.0000
  H   H1054     1.0  0.6919530711929843  0.22332963677557036  0.9638061508172387  1.0000
  H   H1055     1.0  0.7136605937606376  0.25283331189439257  0.8865701146848862  1.0000
  H   H1056     1.0  0.7446571465814696  0.23706249643160124  0.8840423334305106  1.0000
  H   H1057     1.0  0.7610923138787409  0.16403693973906494  0.9367105861358391  1.0000
  H   H1058     1.0  0.7800879542455373  0.1598753218781053  0.974258710601257  1.0000
  H   H1059     1.0  0.7966453233580252  0.23649356430363777  0.9995889023421489  1.0000
  H   H1060     1.0  0.776273698675136  0.24125314754659627  0.9616198043293789  1.0000
  H   H1061     1.0  0.7858573590669697  0.10662082344447436  0.5448026432687467  1.0000
  H   H1062     1.0  0.8129609285608861  0.1515431878041126  0.533935123845196  1.0000
  H   H1063     1.0  0.7446062025357383  0.15736940374876907  0.5179041616073522  1.0000
  H   H1064     1.0  0.717427680966315  0.1111547633764044  0.523326378496055  1.0000
  H   H1065     1.0  0.8368014012482812  0.24313069675875557  0.5297886314022932  1.0000
  H   H1066     1.0  0.8353876781840192  0.2720494734401194  0.5606213548008296  1.0000
  H   H1067     1.0  0.7578063862551099  0.21313930496203062  0.5861907448753091  1.0000
  H   H1068     1.0  0.7596160622873926  0.18215917249546257  0.5561402174873361  1.0000
  H   H1069     1.0  0.8405931778139667  0.20144160625925925  0.5527132600154601  1.0000
  H   H1070     1.0  0.8860187572860108  0.2109789177808255  0.5452994696534326  1.0000
  H   H1071     1.0  0.8725597025446367  0.2026108122318877  0.9627682667258413  1.0000
  H   H1072     1.0  0.8294577859691128  0.1968259691509003  0.9695368229779644  1.0000
  C   C1377     1.0  0.5907775782396457  0.8906219287173919  0.6513698658150718  1.0000
  C   C1378     1.0  0.571976945084942  0.8840354835905473  0.6326974580242122  1.0000
  C   C1379     1.0  0.5759495990535091  0.9014841082132107  0.6131474076857854  1.0000
  C   C1380     1.0  0.598264517806183  0.9269968331019205  0.6128727078963613  1.0000
  C   C1381     1.0  0.6176543661030819  0.9333212619590882  0.631170507429186  1.0000
  C   C1382     1.0  0.614580369932688  0.9147894902857197  0.6489685706219285  1.0000
  H   H1073     1.0  0.5531301073739681  0.8654674431016559  0.6344017219013945  1.0000
  H   H1074     1.0  0.5602112668803979  0.8950166931380771  0.5990312140576471  1.0000
  H   H1075     1.0  0.6365538872816343  0.9528570714381916  0.6311317080239001  1.0000
  H   H1076     1.0  0.6292251483239342  0.9194678276456494  0.6632151302518272  1.0000
  C   C1383     1.0  0.6069964774587754  0.9818199528918874  0.6275974701964085  1.0000
  C   C1384     1.0  0.6113804844611719  0.9771292320454003  0.6022587425863538  1.0000
  C   C1385     1.0  0.6242400290029148  0.9987508135825588  0.5860091636585711  1.0000
  C   C1386     1.0  0.636027853568827  0.02440998097654745  0.5954364491579097  1.0000
  C   C1387     1.0  0.6342533179592241  0.028358375714512718  0.6215676546209287  1.0000
  C   C1388     1.0  0.6191151021086094  0.007073138638805654  0.6373968419924388  1.0000
  C   C1389     1.0  0.602001773185028  0.9478793443001626  0.5914094588832874  1.0000
  C   C1390     1.0  0.5760707911761346  0.9426882084547608  0.5766420172374256  1.0000
  C   C1391     1.0  0.5741339677337247  0.9437423470740695  0.5500537547801388  1.0000
  C   C1392     1.0  0.551778982198847  0.9399905607719249  0.5385142296570365  1.0000
  C   C1393     1.0  0.5295933247806847  0.9342468111249073  0.5531340395657856  1.0000
  C   C1394     1.0  0.5302033781748647  0.9317270294480747  0.5797279279368387  1.0000
  C   C1395     1.0  0.5532772991930237  0.9368095975184735  0.5910323286639085  1.0000
  C   C1396     1.0  0.6506976264942903  0.9635931333562011  0.5774754284629665  1.0000
  C   C1397     1.0  0.669634178205024  0.9624248578418471  0.5624371669682092  1.0000
  C   C1398     1.0  0.6628585232392075  0.9443517256516579  0.5421982331889316  1.0000
  C   C1399     1.0  0.6362119676968956  0.924106843593575  0.5419842544687798  1.0000
  C   C1400     1.0  0.6173653293665086  0.9260970253189843  0.5556633727963726  1.0000
  C   C1401     1.0  0.6239732376560408  0.9462300229683  0.5734038188722654  1.0000
  C   C1402     1.0  0.6853100762755603  0.9458723705709334  0.5225581502713944  1.0000
  C   C1403     1.0  0.7235761139135282  0.03260055049154542  0.5103790169521543  1.0000
  C   C1404     1.0  0.7354114131269398  0.02233046893011669  0.5261389653440762  1.0000
  C   C1405     1.0  0.7243458085118036  0.9953018509318583  0.5284145504640935  1.0000
  C   C1406     1.0  0.7012959292083483  0.9773499222207088  0.5146042721877875  1.0000
  C   C1407     1.0  0.6918480532915283  0.9883981420395159  0.9967720655183933  1.0000
  C   C1408     1.0  0.703100881535093  0.01586404838812872  0.9949349136781065  1.0000
  C   C1409     1.0  0.6725727668423239  0.9259929486257106  0.9972318384710311  1.0000
  C   C1410     1.0  0.6796086436951819  0.9070781451232944  0.9895204566704611  1.0000
  C   C1411     1.0  0.6670913942072222  0.8890305409672564  0.9694049049999924  1.0000
  C   C1412     1.0  0.6465406185222105  0.8892106748483867  0.9567252593525644  1.0000
  C   C1413     1.0  0.6387822868513711  0.9073129864138136  0.9640990863271471  1.0000
  C   C1414     1.0  0.6519206740988172  0.9248791328642337  0.9832465928357327  1.0000
  C   C1415     1.0  0.7283628368239005  0.9451814432944055  0.5315379025896074  1.0000
  C   C1416     1.0  0.7438654497877082  0.9387342030417141  0.5460300624549659  1.0000
  C   C1417     1.0  0.7328624413196606  0.9214513797443754  0.5667347830947006  1.0000
  C   C1418     1.0  0.7065507621608926  0.910758886666868  0.572474379118642  1.0000
  C   C1419     1.0  0.6913755582347281  0.9176967886238699  0.5585663442998626  1.0000
  C   C1420     1.0  0.7022655446890963  0.936399602226478  0.538413739197346  1.0000
  H   H1077     1.0  0.5958299450593132  0.9653462181887539  0.6403512227079328  1.0000
  H   H1078     1.0  0.6260664494701021  0.9955453532184811  0.5657539341290733  1.0000
  H   H1079     1.0  0.647581936986175  0.04082549306645822  0.5821827663092769  1.0000
  H   H1080     1.0  0.6167944596155291  0.01014159044579954  0.6580939967481427  1.0000
  H   H1081     1.0  0.5904464585257588  0.9476667267562138  0.5363071254873488  1.0000
  H   H1082     1.0  0.5507151387105144  0.9404332113075409  0.5180050400610955  1.0000
  H   H1083     1.0  0.5123141359295753  0.9269040172373122  0.5907669407317531  1.0000
  H   H1084     1.0  0.553516979235703  0.9352233749126097  0.6119067967017691  1.0000
  H   H1085     1.0  0.6575720235060307  0.9782418842606191  0.5929142938173005  1.0000
  H   H1086     1.0  0.690114251852548  0.9776494035924495  0.567427934470133  1.0000
  H   H1087     1.0  0.6298663196194484  0.9074588378101582  0.5281736061572682  1.0000
  H   H1088     1.0  0.5966818842658288  0.9125184803684497  0.5516346365485123  1.0000
  H   H1089     1.0  0.7512419766733713  0.03543424658696703  0.5389544089100049  1.0000
  H   H1090     1.0  0.732140546011014  0.9891996554525095  0.5447539500151131  1.0000
  H   H1091     1.0  0.6748861728963473  0.9769035658928195  0.9852020828621417  1.0000
  H   H1092     1.0  0.6940064763119939  0.02376488682737055  0.9823328668412502  1.0000
  H   H1093     1.0  0.6947012685533496  0.9051992835175945  0.999643221509549  1.0000
  H   H1094     1.0  0.6752452126579879  0.8766813065172802  0.9638236105496173  1.0000
  H   H1095     1.0  0.621464869295929  0.9070427436228737  0.9556970751124882  1.0000
  H   H1096     1.0  0.6442246574535268  0.937806101385594  0.9889966646991015  1.0000
  H   H1097     1.0  0.738476294390411  0.9579968764664046  0.51485840829241  1.0000
  H   H1098     1.0  0.7650476621953382  0.9467525764173852  0.5409457883863031  1.0000
  H   H1099     1.0  0.6973397542394962  0.8961066829849395  0.5874202980288189  1.0000
  H   H1100     1.0  0.6710576482993494  0.9087376081717573  0.5641542346491362  1.0000
  C   C1421     1.0  0.6380993993820279  0.9077308915360794  0.9007648771087282  1.0000
  C   C1422     1.0  0.6137475326805305  0.9014022863013914  0.8912551428731571  1.0000
  C   C1423     1.0  0.6100446027517362  0.921435689140097  0.8821508624228233  1.0000
  C   C1424     1.0  0.6301375756777405  0.9482054197775932  0.8822633806981525  1.0000
  C   C1425     1.0  0.6536438349361362  0.9540003623397225  0.894035120261891  1.0000
  C   C1426     1.0  0.6583118502693959  0.9345134625601522  0.9024739909115717  1.0000
  H   H1101     1.0  0.5972413664387515  0.8802871425984716  0.8900620611606161  1.0000
  H   H1102     1.0  0.5912353924330714  0.915978776855316  0.8731726800396691  1.0000
  H   H1103     1.0  0.6697396406388326  0.9744604731236785  0.8942892563665136  1.0000
  H   H1104     1.0  0.6776578341370825  0.9399354758499038  0.9098943771724977  1.0000
  C   C1427     1.0  0.6489391451202025  0.007897898645859769  0.8982681353785814  1.0000
  C   C1428     1.0  0.6449162827993866  0.999850129604883  0.8726391882169882  1.0000
  C   C1429     1.0  0.6540383519930258  0.01967771458784329  0.8536934386158891  1.0000
  C   C1430     1.0  0.6673954383329253  0.04652104530141221  0.8600972804583249  1.0000
  C   C1431     1.0  0.6711740984753488  0.053737625269857155  0.8856234091959104  1.0000
  C   C1432     1.0  0.6616152793154171  0.03455616758194324  0.9045516990646308  1.0000
  C   C1433     1.0  0.6276705043250828  0.9695501140293282  0.864677550252324  1.0000
  C   C1434     1.0  0.5991312501381423  0.9672235343768901  0.8651528429670762  1.0000
  C   C1435     1.0  0.5899081629173734  0.9739471646348631  0.8434232360367147  1.0000
  C   C1436     1.0  0.5670480548671898  0.974846776757575  0.8445775183439698  1.0000
  C   C1437     1.0  0.5541046604258469  0.9714704131091592  0.8677853826157235  1.0000
  C   C1438     1.0  0.5618300568755767  0.9636665735741148  0.8893384522520342  1.0000
  C   C1439     1.0  0.5842106333598277  0.9611271010243507  0.8877961758919202  1.0000
  C   C1440     1.0  0.666965532639001  0.9761872330737439  0.8344586334454103  1.0000
  C   C1441     1.0  0.6766895077927307  0.9716254218899946  0.8124574306780477  1.0000
  C   C1442     1.0  0.6600108692021543  0.9524205765052792  0.7944292870119598  1.0000
  C   C1443     1.0  0.6331207168070685  0.9409243568305018  0.7989610575493515  1.0000
  C   C1444     1.0  0.6228056797126212  0.9454563193404631  0.8209428606140713  1.0000
  C   C1445     1.0  0.639371656208396  0.9637983997110295  0.8387653674321437  1.0000
  C   C1446     1.0  0.6722144880445979  0.9471261567555386  0.7683114673437644  1.0000
  C   C1447     1.0  0.7305307473532021  0.03075686926113729  0.7476255644155934  1.0000
  C   C1448     1.0  0.7381113756618723  0.012060246046744938  0.7452665605742114  1.0000
  C   C1449     1.0  0.7202166009196085  0.9857835144383515  0.7506189385333996  1.0000
  C   C1450     1.0  0.6934813145262088  0.9766401296733132  0.7570654597216497  1.0000
  C   C1451     1.0  0.6861945087409563  0.9960669961172041  0.7561750133703385  1.0000
  C   C1452     1.0  0.7040773985936531  0.022464128808925787  0.7524560903736864  1.0000
  C   C1453     1.0  0.6487593518854127  0.9291662782902868  0.7481997956138242  1.0000
  C   C1454     1.0  0.6341964323845488  0.9015936625285181  0.7516044434276609  1.0000
  C   C1455     1.0  0.6140846145313038  0.8855073291483204  0.7355026902340176  1.0000
  C   C1456     1.0  0.6061853727493792  0.8973627076953393  0.7171816110580214  1.0000
  C   C1457     1.0  0.6201241162777041  0.9246406076682311  0.7136508651770056  1.0000
  C   C1458     1.0  0.6412322586330556  0.9400268205550838  0.7285711764796937  1.0000
  C   C1459     1.0  0.6962632314948312  0.9214519754870563  0.7536026127998843  1.0000
  C   C1460     1.0  0.7106635243755997  0.9094585157428362  0.7577366894330957  1.0000
  C   C1461     1.0  0.7197400028972263  0.909097399201872  0.7821143557742188  1.0000
  C   C1462     1.0  0.7095958419611267  0.9163374906359485  0.8027827989700114  1.0000
  C   C1463     1.0  0.6942050145022121  0.9275657348998403  0.799116255170495  1.0000
  C   C1464     1.0  0.6888118990465698  0.9322693574883983  0.7742807558469982  1.0000
  H   H1105     1.0  0.6406779707228332  0.9934720274790578  0.914146791991831  1.0000
  H   H1106     1.0  0.6510104402950487  0.0145178367976877  0.8328930774421247  1.0000
  H   H1107     1.0  0.6754600453810568  0.0617976742751987  0.844571698433177  1.0000
  H   H1108     1.0  0.6642963637517202  0.04018120195129838  0.9245586124002989  1.0000
  H   H1109     1.0  0.6009716232432407  0.9795198808527461  0.8261672005358159  1.0000
  H   H1110     1.0  0.5606405939791106  0.9806370886436699  0.8278685544576022  1.0000
  H   H1111     1.0  0.5515682795523038  0.9595990271554914  0.907946647027146  1.0000
  H   H1112     1.0  0.5905377089266683  0.956691751415283  0.9054382654754133  1.0000
  H   H1113     1.0  0.6810643174853013  0.9899546489677885  0.8486398160774024  1.0000
  H   H1114     1.0  0.6978802515552127  0.9818175604909556  0.8097880315943783  1.0000
  H   H1115     1.0  0.6187748201433967  0.9269571850321041  0.7855131836772627  1.0000
  H   H1116     1.0  0.6016809653770052  0.9346038097180714  0.8237189580622766  1.0000
  H   H1117     1.0  0.758985958830636  0.01862914531898907  0.7413672203429796  1.0000
  H   H1118     1.0  0.7283429166941124  0.9729909414810711  0.7508556149056435  1.0000
  H   H1119     1.0  0.6661812298294361  0.9909631449213121  0.7602547708361498  1.0000
  H   H1120     1.0  0.6970644977147691  0.036070523903298346  0.7527645456457092  1.0000
  H   H1121     1.0  0.6387229584476712  0.8923614765923875  0.7671125657204305  1.0000
  H   H1122     1.0  0.6028166970137089  0.8638453189604419  0.7388297392372823  1.0000
  H   H1123     1.0  0.6147930267837352  0.932624842356671  0.698041864430493  1.0000
  H   H1124     1.0  0.651285949759765  0.960698723358853  0.7243284615116817  1.0000
  H   H1125     1.0  0.6904396635598755  0.9230963481636373  0.7344977856371131  1.0000
  H   H1126     1.0  0.7174345245051625  0.9037281009660293  0.7407522497691983  1.0000
  H   H1127     1.0  0.7149133017567969  0.9144929525789208  0.8227489729301292  1.0000
  H   H1128     1.0  0.6882648341221631  0.934147980298964  0.8159842966185348  1.0000
  C   C1465     1.0  0.33675391295364643  0.9174849672456559  0.5244145257761449  1.0000
  C   C1466     1.0  0.35377262240832363  0.9079650206357417  0.527022039808383  1.0000
  C   C1467     1.0  0.38001612953003966  0.924981137081682  0.534843999914018  1.0000
  C   C1468     1.0  0.3896844133742708  0.9517625026793918  0.5381770628251021  1.0000
  C   C1469     1.0  0.37252450753060473  0.9613112803841691  0.5334130778470744  1.0000
  C   C1470     1.0  0.34589399387867004  0.9442220655084453  0.528495641221141  1.0000
  H   H1129     1.0  0.3458390036108118  0.8861640560035106  0.5245408178403504  1.0000
  H   H1130     1.0  0.392241985186721  0.9166792924716899  0.5387801995802712  1.0000
  H   H1131     1.0  0.37927025978846407  0.9826713917423636  0.53657057344924  1.0000
  H   H1132     1.0  0.3324078347807128  0.9519489537759787  0.5266396716692906  1.0000
  C   C1471     1.0  0.4340051046261136  0.006963462690631861  0.5146236718904305  1.0000
  C   C1472     1.0  0.4314111677779768  0.0007978377430750693  0.5407624611963273  1.0000
  C   C1473     1.0  0.4445660238035597  0.02178912337504757  0.5576144008911734  1.0000
  C   C1474     1.0  0.45825485752459055  0.04764198200813464  0.5494993112786035  1.0000
  C   C1475     1.0  0.4609028402964856  0.05359356141399774  0.5241974251447232  1.0000
  C   C1476     1.0  0.4487395886152982  0.03303593273106098  0.5064253575535224  1.0000
  C   C1477     1.0  0.4179010969804404  0.9702853692693736  0.5505981104362999  1.0000
  C   C1478     1.0  0.44120647201607094  0.9647998386699955  0.5430863515759256  1.0000
  C   C1479     1.0  0.46270957853346906  0.9735689128922678  0.5601549859492932  1.0000
  C   C1480     1.0  0.48315860862099075  0.9692088404995439  0.5542588343250234  1.0000
  C   C1481     1.0  0.48240261221437974  0.9559358457662178  0.5320040774441174  1.0000
  C   C1482     1.0  0.4619249272450274  0.9479419485860255  0.51452861334748  1.0000
  C   C1483     1.0  0.44207283079212195  0.9531033545296727  0.519886811217461  1.0000
  C   C1484     1.0  0.39497755504408877  0.977440460609725  0.5897393384827564  1.0000
  C   C1485     1.0  0.384939235591809  0.9725603951878958  0.614253578730486  1.0000
  C   C1486     1.0  0.389675674121287  0.9572915562138304  0.631218424694714  1.0000
  C   C1487     1.0  0.40434653264705567  0.9460231519635717  0.6225019443002128  1.0000
  C   C1488     1.0  0.41231661370886363  0.9487921139593088  0.5971787364522725  1.0000
  C   C1489     1.0  0.40959791543062524  0.9659823115948246  0.5804963501585257  1.0000
  C   C1490     1.0  0.38052957801829523  0.9566979899956111  0.6609407091139684  1.0000
  C   C1491     1.0  0.43683512964005067  0.040967699248585905  0.6736426644194359  1.0000
  C   C1492     1.0  0.4102305150007302  0.03171502010581273  0.6743592894350663  1.0000
  C   C1493     1.0  0.39181493836965975  0.005013747743026985  0.671546138554813  1.0000
  C   C1494     1.0  0.4000744710780562  0.9864466625590385  0.669210608353629  1.0000
  C   C1495     1.0  0.4272120036654245  0.9961839895984446  0.6684644957899813  1.0000
  C   C1496     1.0  0.4453560006864744  0.022916506599463423  0.6714840595063556  1.0000
  C   C1497     1.0  0.38272789829046977  0.9345149289588931  0.6781740469627748  1.0000
  C   C1498     1.0  0.36635048781234336  0.9075658647269707  0.672409037328371  1.0000
  C   C1499     1.0  0.3648178380902992  0.8877081505018268  0.6876820352251081  1.0000
  C   C1500     1.0  0.3806647601450562  0.8942792011191744  0.709297571903929  1.0000
  C   C1501     1.0  0.3975188907920236  0.9206658489734325  0.7150922630833764  1.0000
  C   C1502     1.0  0.3971453803549006  0.9403598527990938  0.7011283571209852  1.0000
  C   C1503     1.0  0.33947619930357625  0.9486792191008216  0.6873487483337021  1.0000
  C   C1504     1.0  0.31212114312971173  0.9372791151034652  0.6911314963520498  1.0000
  C   C1505     1.0  0.29528398773260733  0.9243867229763313  0.670828737551077  1.0000
  C   C1506     1.0  0.30507632282579283  0.9222347928166523  0.646621982590238  1.0000
  C   C1507     1.0  0.33199371242972886  0.9332920782409221  0.6440369722130657  1.0000
  C   C1508     1.0  0.349661977459437  0.947248222816929  0.6634269750046881  1.0000
  H   H1133     1.0  0.42664789626619243  0.9912874490385114  0.9999109374060217  1.0000
  H   H1134     1.0  0.444636125204776  0.019601540912663973  0.5788489274100869  1.0000
  H   H1135     1.0  0.466257739395241  0.06302240161691001  0.5644322323880097  1.0000
  H   H1136     1.0  0.4498552920957459  0.03705156435276669  0.9859683711165379  1.0000
  H   H1137     1.0  0.4641674330980189  0.9842495046076805  0.5780892350545893  1.0000
  H   H1138     1.0  0.499088689231104  0.9761852805830353  0.5675817741120915  1.0000
  H   H1139     1.0  0.46273012781597694  0.9391789855074503  0.9961726147067265  1.0000
  H   H1140     1.0  0.42672114100368247  0.9484918674130366  0.5059364850469201  1.0000
  H   H1141     1.0  0.39094740083876545  0.9903247010243102  0.578297781858001  1.0000
  H   H1142     1.0  0.3745369675541491  0.9826545100065223  0.6210355207774328  1.0000
  H   H1143     1.0  0.40840208268517364  0.9334937459726992  0.634600180859432  1.0000
  H   H1144     1.0  0.4225433935764486  0.9385908863859597  0.590219869117222  1.0000
  H   H1145     1.0  0.40228586689533763  0.04541985567793683  0.6756858411017909  1.0000
  H   H1146     1.0  0.3713915526301578  0.0008655949041569413  0.6704659631116539  1.0000
  H   H1147     1.0  0.4352058941693681  0.9831087723548104  0.6654239803947528  1.0000
  H   H1148     1.0  0.4665826369813731  0.02937831625821485  0.6723886676405959  1.0000
  H   H1149     1.0  0.35243604139222656  0.9013018393695251  0.6570468007994767  1.0000
  H   H1150     1.0  0.350696142634793  0.8670543595237132  0.6850143821146766  1.0000
  H   H1151     1.0  0.4094766447671658  0.9257424047323992  0.7326412340941835  1.0000
  H   H1152     1.0  0.40817188954600464  0.9603960282937772  0.7079919719160589  1.0000
  H   H1153     1.0  0.35262984316292767  0.9573867793210125  0.7030760872663369  1.0000
  H   H1154     1.0  0.30441278422000356  0.9387574639465024  0.7102229377199973  1.0000
  H   H1155     1.0  0.2924450330818964  0.9120581890028926  0.6313400608302853  1.0000
  H   H1156     1.0  0.33891046970446814  0.9287956470483559  0.6265328145153638  1.0000
  C   C1509     1.0  0.3650180088100486  0.8830536231605814  0.7719877109946023  1.0000
  C   C1510     1.0  0.3743836031073296  0.8779779287874244  0.7940742724535939  1.0000
  C   C1511     1.0  0.38683231374853044  0.8974284416128447  0.8126009884776052  1.0000
  C   C1512     1.0  0.39135625005886476  0.923108387181469  0.8086725486924091  1.0000
  C   C1513     1.0  0.3794325571421787  0.9268527798758174  0.7869836811375979  1.0000
  C   C1514     1.0  0.3654933637575682  0.9064995491367809  0.7688973383635813  1.0000
  H   H1157     1.0  0.37381599856081854  0.8593762073472038  0.7982044691462765  1.0000
  H   H1158     1.0  0.3960546091783959  0.8934011346805156  0.8292265336426081  1.0000
  H   H1159     1.0  0.3815304465628667  0.9461931514459986  0.7832104389735454  1.0000
  H   H1160     1.0  0.3577576787921243  0.9105348793885161  0.7516335429816255  1.0000
  C   C1515     1.0  0.4383414329305339  0.979852949973571  0.7893601447113585  1.0000
  C   C1516     1.0  0.4275999210325659  0.9766715178798505  0.8139667275436686  1.0000
  C   C1517     1.0  0.4354005479320418  0.9998219767470787  0.8278200552009949  1.0000
  C   C1518     1.0  0.4511584775869429  0.02453426297700112  0.8178272683696144  1.0000
  C   C1519     1.0  0.4608613940107335  0.027165186498019134  0.7926445143688088  1.0000
  C   C1520     1.0  0.4549818559147931  0.0048300300627821535  0.7782499350077446  1.0000
  C   C1521     1.0  0.41085342247073303  0.9475048356961844  0.8276047185016583  1.0000
  C   C1522     1.0  0.43534246201810656  0.9466000360301808  0.8386722488594577  1.0000
  C   C1523     1.0  0.4467782527805297  0.9590722394814171  0.8619189125364974  1.0000
  C   C1524     1.0  0.4679269357074919  0.957885895623622  0.8718593201707419  1.0000
  C   C1525     1.0  0.47895489719439865  0.9455257029272892  0.8584812852281675  1.0000
  C   C1526     1.0  0.4692356272950441  0.9344455842345027  0.8345362322559818  1.0000
  C   C1527     1.0  0.4481004002885131  0.9355661059053832  0.8246016445325304  1.0000
  C   C1528     1.0  0.37253069212433076  0.956441987970055  0.8395044961028401  1.0000
  C   C1529     1.0  0.3562128364168749  0.9593242201596592  0.8567023324958097  1.0000
  C   C1530     1.0  0.3529851816669185  0.9497118316078965  0.8819801450395655  1.0000
  C   C1531     1.0  0.3693474560721574  0.939935120204397  0.8894296308544559  1.0000
  C   C1532     1.0  0.3854092490209336  0.9372757349269064  0.8717603816872629  1.0000
  C   C1533     1.0  0.3885366331414914  0.9467631151920959  0.8469132425421804  1.0000
  C   C1534     1.0  0.33053483456915744  0.9496281344390874  0.9012925490206164  1.0000
  C   C1535     1.0  0.37367922318117086  0.03545210968136181  0.9168297708673502  1.0000
  C   C1536     1.0  0.35599041154974664  0.025554581779897216  0.8965881211297024  1.0000
  C   C1537     1.0  0.3424344119498098  0.998464765983931  0.8918119143390094  1.0000
  C   C1538     1.0  0.34520370794404814  0.9810135770098073  0.9077992092870597  1.0000
  C   C1539     1.0  0.3628230681817993  0.9919554275337821  0.928215456348494  1.0000
  C   C1540     1.0  0.37680828336359573  0.018604763524322943  0.9329276441204649  1.0000
  C   C1541     1.0  0.32119616794391387  0.9323700706401308  0.9267255591855158  1.0000
  C   C1542     1.0  0.3196499634462282  0.90784882177835  0.9274879674993832  1.0000
  C   C1543     1.0  0.31290871627369543  0.8930511645676623  0.9498810442601335  1.0000
  C   C1544     1.0  0.30571391440530826  0.90191194157114  0.9713215956211152  1.0000
  C   C1545     1.0  0.304371565508278  0.9244898997283555  0.9702759516486604  1.0000
  C   C1546     1.0  0.31189625793317866  0.9395905591279136  0.9479119744418747  1.0000
  C   C1547     1.0  0.2851880381809121  0.9452136995134114  0.8893248724601843  1.0000
  C   C1548     1.0  0.2632243826690504  0.9355054685738736  0.8734908351630134  1.0000
  C   C1549     1.0  0.2567771924707877  0.9149326395259368  0.8573541625046125  1.0000
  C   C1550     1.0  0.2722419778411941  0.9038052030703639  0.8563104585024223  1.0000
  C   C1551     1.0  0.2952264682129165  0.9144995556873923  0.8705653600044574  1.0000
  C   C1552     1.0  0.3029894642828828  0.9363575069035087  0.8864032772421568  1.0000
  H   H1161     1.0  0.43635822657089424  0.9631109113499186  0.778141296672944  1.0000
  H   H1162     1.0  0.4279567362958785  0.9977665163341939  0.8476465513020836  1.0000
  H   H1163     1.0  0.4560620958192425  0.04193418474461042  0.8297173461194747  1.0000
  H   H1164     1.0  0.46207755832274106  0.00531461147528467  0.758912311413258  1.0000
  H   H1165     1.0  0.43774458520059545  0.9684969729897502  0.8728719846487035  1.0000
  H   H1166     1.0  0.47682027742830363  0.9672811393385854  0.8901629396143594  1.0000
  H   H1167     1.0  0.4794742958795547  0.9268859627835355  0.8221243025050264  1.0000
  H   H1168     1.0  0.44197810369218415  0.9277105250918118  0.805593815882974  1.0000
  H   H1169     1.0  0.3747464675354791  0.9655551203250161  0.8206945444202416  1.0000
  H   H1170     1.0  0.3452299572062428  0.9686282542033949  0.8505274071445607  1.0000
  H   H1171     1.0  0.3685683244944604  0.93192329408656  0.908678015816785  1.0000
  H   H1172     1.0  0.396500944125472  0.9277118269411806  0.87751433349116  1.0000
  H   H1173     1.0  0.3538807060047108  0.03827463765608763  0.8828628315098195  1.0000
  H   H1174     1.0  0.32987797614398195  0.9905800289762958  0.8750622110770918  1.0000
  H   H1175     1.0  0.36692591772134114  0.9794345877980043  0.941376214621467  1.0000
  H   H1176     1.0  0.39096416018992614  0.02561984625344049  0.9478848148581747  1.0000
  H   H1177     1.0  0.3253163070841457  0.9007499132848036  0.9106839450700656  1.0000
  H   H1178     1.0  0.3141268370096532  0.8752655731045993  0.9507171714440443  1.0000
  H   H1179     1.0  0.29999994739527025  0.9327794929674429  0.9876289856627739  1.0000
  H   H1180     1.0  0.31087845218532084  0.9572431649191725  0.9487539215365786  1.0000
  H   H1181     1.0  0.29038494407902093  0.9613867807122428  0.9032422191362323  1.0000
  H   H1182     1.0  0.2512497899454457  0.9447368659648101  0.875064151047356  1.0000
  H   H1183     1.0  0.2668361660435578  0.8870339001605455  0.8436424526765799  1.0000
  H   H1184     1.0  0.30677726497407576  0.9047577193083028  0.868980404298529  1.0000
  C   C1553     1.0  0.822071138228731  0.6532729016951443  0.7316537892296575  1.0000
  C   C1554     1.0  0.8065927413554337  0.627811855403229  0.7220043771350573  1.0000
  C   C1555     1.0  0.7804178904309582  0.6184040373515485  0.7157382731813864  1.0000
  C   C1556     1.0  0.7695788612187217  0.6346453897308904  0.7176607837133021  1.0000
  C   C1557     1.0  0.7854162748665952  0.6601849322777481  0.7277059497418185  1.0000
  C   C1558     1.0  0.8113390794352592  0.6695471540120231  0.7338886349741246  1.0000
  H   H1185     1.0  0.8150960260037626  0.6148642231363384  0.7202215444621707  1.0000
  H   H1186     1.0  0.7682298538670436  0.5992643233328013  0.7066495124931672  1.0000
  H   H1187     1.0  0.7784978637649891  0.6741083051970029  0.7261675533222329  1.0000
  H   H1188     1.0  0.8229241318054912  0.6904053622831  0.739353531208642  1.0000
  C   C1559     1.0  0.7238503081083962  0.6482199451891335  0.7341602308111258  1.0000
  C   C1560     1.0  0.7277229839980356  0.6427174397057638  0.7088862982078984  1.0000
  C   C1561     1.0  0.7144346608466221  0.6477823983370463  0.6895331548512977  1.0000
  C   C1562     1.0  0.6975951718141432  0.6572000228136108  0.6952269675770016  1.0000
  C   C1563     1.0  0.6928278663201849  0.6607677002144314  0.7206890772958657  1.0000
  C   C1564     1.0  0.7058627544872068  0.6564169767094293  0.7399277624068731  1.0000
  C   C1565     1.0  0.7422251552035872  0.62659112525836  0.7034155820625885  1.0000
  C   C1566     1.0  0.7185775601018066  0.5969422170125647  0.708843618862084  1.0000
  C   C1567     1.0  0.6969256285038725  0.5848301224630492  0.6927100501561062  1.0000
  C   C1568     1.0  0.6756897668216857  0.5600337311875768  0.6984492581859948  1.0000
  C   C1569     1.0  0.6748917707787252  0.5469087796982277  0.7203127230645925  1.0000
  C   C1570     1.0  0.69593457822134  0.5589205812473181  0.7372544833826754  1.0000
  C   C1571     1.0  0.7174213035171443  0.5837890969886833  0.7314093529763565  1.0000
  C   C1572     1.0  0.7683894901407156  0.6587436758212184  0.6652169855675525  1.0000
  C   C1573     1.0  0.7760034523265865  0.6635036361224782  0.6396002602186244  1.0000
  C   C1574     1.0  0.7676496588231141  0.643011193720894  0.622644726111665  1.0000
  C   C1575     1.0  0.7550954700109401  0.6174251677577993  0.6321224508378753  1.0000
  C   C1576     1.0  0.7498868906406163  0.6125951124021991  0.6578340407327273  1.0000
  C   C1577     1.0  0.7536923908651493  0.632639162090195  0.6747057681242692  1.0000
  C   C1578     1.0  0.7667128306416471  0.6488031895551366  0.592315424996713  1.0000
  C   C1579     1.0  0.7108424956967777  0.6766325287579279  0.6065282291440129  1.0000
  C   C1580     1.0  0.7359132807674813  0.6939218204038787  0.5968947248055798  1.0000
  C   C1581     1.0  0.7528734139929935  0.684995792602037  0.5914926836076256  1.0000
  C   C1582     1.0  0.7456030949067627  0.658603363898819  0.5931172147069458  1.0000
  C   C1583     1.0  0.719621924649666  0.6414395365469087  0.6021774578322798  1.0000
  C   C1584     1.0  0.7025196213530666  0.6502352601481557  0.6090426246035648  1.0000
  C   C1585     1.0  0.7585596160252601  0.6237644169793498  0.5740820324766628  1.0000
  C   C1586     1.0  0.7726080220829377  0.6104640635728671  0.5747228046549591  1.0000
  C   C1587     1.0  0.7671295961440305  0.5894773058234701  0.5583255939900638  1.0000
  C   C1588     1.0  0.7482100978311657  0.5823464143242297  0.5396754958572432  1.0000
  C   C1589     1.0  0.7349547863943134  0.5964459285302319  0.5379291346253253  1.0000
  C   C1590     1.0  0.7395998382036592  0.6163829839866238  0.5552103897396596  1.0000
  C   C1591     1.0  0.7965671293864701  0.6795788594934942  0.5544256717677527  1.0000
  C   C1592     1.0  0.820399968539928  0.6959441035160295  0.5425493678067689  1.0000
  C   C1593     1.0  0.8440720825532606  0.7021234530662872  0.5544600092414307  1.0000
  C   C1594     1.0  0.8427683430553836  0.6904536992251433  0.5783369692573396  1.0000
  C   C1595     1.0  0.8191182300381752  0.6756341145631835  0.5907516149666652  1.0000
  C   C1596     1.0  0.7955033438293717  0.6699720566143285  0.5792039419684528  1.0000
  H   H1189     1.0  0.7330812219844807  0.6435955443966709  0.749811910903453  1.0000
  H   H1190     1.0  0.7160123065637266  0.6442324405014622  0.6697536060306049  1.0000
  H   H1191     1.0  0.6878652477775845  0.6613436062418215  0.6802775567203492  1.0000
  H   H1192     1.0  0.701794575195625  0.6588689352072061  0.7601053931257991  1.0000
  H   H1193     1.0  0.6957405792766329  0.59370264390273  0.6749379825649052  1.0000
  H   H1194     1.0  0.6593624409829737  0.5523056027437604  0.6851051727230457  1.0000
  H   H1195     1.0  0.6945035461232469  0.5478457662516262  0.7546734763857749  1.0000
  H   H1196     1.0  0.733166302619683  0.591445718306057  0.7452898402173826  1.0000
  H   H1197     1.0  0.7729439931270785  0.675798632919106  0.677105317344175  1.0000
  H   H1198     1.0  0.7848552787905291  0.6836476993375327  0.6314341493881035  1.0000
  H   H1199     1.0  0.7475640838622114  0.5997629691448173  0.61993924358108  1.0000
  H   H1200     1.0  0.7393509723953862  0.5928209605126117  0.6650600419731711  1.0000
  H   H1201     1.0  0.7431534122745862  0.7149605605228585  0.5970377006140584  1.0000
  H   H1202     1.0  0.7731426643146498  0.7009734365755272  0.5867110449001928  1.0000
  H   H1203     1.0  0.7118325288050136  0.6203216159676714  0.6049702390247581  1.0000
  H   H1204     1.0  0.6825089132306817  0.6361338370775076  0.6157504597864155  1.0000
  H   H1205     1.0  0.7883100981347914  0.6162869421055337  0.5883590496397109  1.0000
  H   H1206     1.0  0.7786435822568265  0.5799854098453878  0.5596441917787046  1.0000
  H   H1207     1.0  0.7201947048756417  0.5911425961617831  0.5227618471491453  1.0000
  H   H1208     1.0  0.7294402136524506  0.6273268283196227  0.5525567044151314  1.0000
  H   H1209     1.0  0.7780205129609696  0.6747394716299638  0.5450210839205063  1.0000
  H   H1210     1.0  0.8205088164156282  0.705008279353799  0.5241411660070587  1.0000
  H   H1211     1.0  0.8608948301578713  0.693988274495217  0.5885856381665805  1.0000
  H   H1212     1.0  0.8187598187478015  0.6676990995976866  0.6096756369008041  1.0000
  C   C1597     1.0  0.7607000158230286  0.5844700753021117  0.9773820627267709  1.0000
  C   C1598     1.0  0.7469226636299047  0.5706344098428281  0.955860032614689  1.0000
  C   C1599     1.0  0.7399407648680578  0.5833030025169829  0.9382742021688601  1.0000
  C   C1600     1.0  0.7429382628344127  0.6081107219242268  0.9433336446181398  1.0000
  C   C1601     1.0  0.7592034128605588  0.6225067345964116  0.9636024539394878  1.0000
  C   C1602     1.0  0.7683369312542032  0.6108571722463597  0.9805422742873066  1.0000
  H   H1213     1.0  0.7404422025040526  0.5503248874250785  0.9534117901411495  1.0000
  H   H1214     1.0  0.7293913924813442  0.5724083479113823  0.9218057945952652  1.0000
  H   H1215     1.0  0.7641577625383587  0.6425638146053727  0.9676705715837133  1.0000
  H   H1216     1.0  0.7803560207287781  0.6214119887684952  0.9972764577871098  1.0000
  C   C1603     1.0  0.7080041763318183  0.6289264502688455  0.9651990494670021  1.0000
  C   C1604     1.0  0.7181587081282367  0.6360624238969316  0.9398610978450531  1.0000
  C   C1605     1.0  0.715413037485434  0.6557028006871997  0.9277013642284558  1.0000
  C   C1606     1.0  0.7027726202103722  0.6672319109765138  0.939696200372588  1.0000
  C   C1607     1.0  0.6927045563481082  0.6595072254559288  0.9645569193095208  1.0000
  C   C1608     1.0  0.6956229281905351  0.6406553251715886  0.9770813673358053  1.0000
  C   C1609     1.0  0.7297443590781703  0.620347652247815  0.9247972287428071  1.0000
  C   C1610     1.0  0.7019476943628832  0.5987867161837548  0.9108604823641161  1.0000
  C   C1611     1.0  0.6940727487821968  0.6019029490137761  0.8866884528710081  1.0000
  C   C1612     1.0  0.669783699542377  0.582925352160259  0.8767887846123138  1.0000
  C   C1613     1.0  0.6529718477723241  0.560442153313191  0.8906033128643541  1.0000
  C   C1614     1.0  0.6605430997868719  0.5569885640729955  0.9142651301779527  1.0000
  C   C1615     1.0  0.6837644121042893  0.5764643341283314  0.924894227256022  1.0000
  C   C1616     1.0  0.7750424491730797  0.6630623401826347  0.9153844930204506  1.0000
  C   C1617     1.0  0.7968011145458882  0.6789789637051815  0.9010015534809722  1.0000
  C   C1618     1.0  0.7989020641137107  0.6725907324877495  0.8752193486684995  1.0000
  C   C1619     1.0  0.7790581479858038  0.6478255890389832  0.8668231573646336  1.0000
  C   C1620     1.0  0.758074536952186  0.6306170943913052  0.8823681390924244  1.0000
  C   C1621     1.0  0.7547987719853769  0.6389611004404476  0.9064004907265034  1.0000
  C   C1622     1.0  0.8224548223145085  0.6952540320384241  0.8574647408096774  1.0000
  C   C1623     1.0  0.7795122287097245  0.7382685021910195  0.8490879492084543  1.0000
  C   C1624     1.0  0.8009531424413999  0.747795252477287  0.8655524768415207  1.0000
  C   C1625     1.0  0.8149200681800949  0.7349382632938871  0.8678494016344452  1.0000
  C   C1626     1.0  0.809757735067622  0.7133326068966551  0.8523082998471829  1.0000
  C   C1627     1.0  0.7889512394126825  0.7051366594496459  0.8349785454762411  1.0000
  C   C1628     1.0  0.7740121948205584  0.7172696877362633  0.8333431505434409  1.0000
  C   C1629     1.0  0.8293876625569415  0.6853110552933632  0.8321054495148212  1.0000
  C   C1630     1.0  0.8302666733940481  0.6620754137204523  0.8311703838474311  1.0000
  C   C1631     1.0  0.8382213916989734  0.6544684646366747  0.809863690434686  1.0000
  C   C1632     1.0  0.8475041466784743  0.6704489445822617  0.7886074362488121  1.0000
  C   C1633     1.0  0.8481436404834443  0.694207508076072  0.7887684537807487  1.0000
  C   C1634     1.0  0.8385890513582067  0.7012297544802085  0.8102148250525233  1.0000
  C   C1635     1.0  0.8710435405108422  0.7344787574151135  0.8650054052269895  1.0000
  C   C1636     1.0  0.8961361198318202  0.745767811350252  0.8753706663491146  1.0000
  C   C1637     1.0  0.9022635138522114  0.7306928732999532  0.8909389277200772  1.0000
  C   C1638     1.0  0.8825489881617133  0.7045768778288225  0.8965357419325665  1.0000
  C   C1639     1.0  0.8571634349053261  0.6947055745120275  0.8880464320560143  1.0000
  C   C1640     1.0  0.8505316997544567  0.7092427624113256  0.8716536833227264  1.0000
  H   H1217     1.0  0.7101151955709328  0.613872760351699  0.9753703135626978  1.0000
  H   H1218     1.0  0.7229739862076546  0.661390578459355  0.9081367641130468  1.0000
  H   H1219     1.0  0.69934700239739  0.6813385957452994  0.9294725570797564  1.0000
  H   H1220     1.0  0.6883574141847364  0.6340615672798386  0.9968593641802866  1.0000
  H   H1221     1.0  0.7053301183519007  0.6190917291559573  0.874813894883262  1.0000
  H   H1222     1.0  0.662448450022986  0.5848347433572186  0.8583668269825742  1.0000
  H   H1223     1.0  0.6474105660143581  0.5398798436399296  0.9260465695930128  1.0000
  H   H1224     1.0  0.6890081715932532  0.5738630170857656  0.9439369753703356  1.0000
  H   H1225     1.0  0.7741521178882371  0.6703674769702284  0.9344194812537074  1.0000
  H   H1226     1.0  0.8110553800755531  0.6970971209867586  0.9096557608299894  1.0000
  H   H1227     1.0  0.779293794321  0.6409694517108786  0.8470587403120022  1.0000
  H   H1228     1.0  0.7438862957879864  0.6113836998602731  0.8738904690374578  1.0000
  H   H1229     1.0  0.8058078927637629  0.7638519691272733  0.8790682496728597  1.0000
  H   H1230     1.0  0.828494224456885  0.7410941311121547  0.8833614038677433  1.0000
  H   H1231     1.0  0.7832490556716034  0.6880943894021334  0.8222407007208843  1.0000
  H   H1232     1.0  0.7583725989673139  0.70965701862774  0.8200601741438173  1.0000
  H   H1233     1.0  0.8246929668572041  0.6493542039822768  0.848374040151194  1.0000
  H   H1234     1.0  0.8379825477868995  0.6358167901158348  0.8102846639820378  1.0000
  H   H1235     1.0  0.8563637114440464  0.7075745870384906  0.7722515469505463  1.0000
  H   H1236     1.0  0.8415084117335763  0.7215170432618817  0.8108860547639691  1.0000
  H   H1237     1.0  0.8684711223077739  0.74599857768679  0.849976455589501  1.0000
  H   H1238     1.0  0.910954459371796  0.7663674916388142  0.870641018844765  1.0000
  H   H1239     1.0  0.8872861754239991  0.6924667721909045  0.9090854095722868  1.0000
  H   H1240     1.0  0.8428724129636742  0.6747300547784086  0.8940157205592479  1.0000
  C   C1641     1.0  0.5483680158059041  0.38396546031362255  0.6192131127111546  1.0000
  C   C1642     1.0  0.5654212060875804  0.39543627882792726  0.6394588363863574  1.0000
  C   C1643     1.0  0.559855149018167  0.4096712450840309  0.6577096886387861  1.0000
  C   C1644     1.0  0.5389423075447166  0.4140775301416886  0.6541438292959865  1.0000
  C   C1645     1.0  0.5227546766187269  0.40205970722380585  0.6334732521329034  1.0000
  C   C1646     1.0  0.526199277601775  0.38558012394025126  0.6175036109142584  1.0000
  H   H1241     1.0  0.5826143173347107  0.3929490648564884  0.6415283966643065  1.0000
  H   H1242     1.0  0.5727319086747992  0.41863940888137813  0.6742533670586358  1.0000
  H   H1243     1.0  0.505325811461125  0.40359370062647054  0.6314242555397557  1.0000
  H   H1244     1.0  0.51180661674428  0.37507066434692476  0.6034217547597983  1.0000
  C   C1647     1.0  0.5236413186873361  0.45656767477816734  0.6413683491175023  1.0000
  C   C1648     1.0  0.5198183485146751  0.4468578595586304  0.6665580870112593  1.0000
  C   C1649     1.0  0.5040093499232147  0.4519030651850303  0.6833101182374942  1.0000
  C   C1650     1.0  0.49107088411200733  0.4639323195761477  0.6742186415909049  1.0000
  C   C1651     1.0  0.4936910533468596  0.47196753054784046  0.648905133594286  1.0000
  C   C1652     1.0  0.510888204307482  0.46915011983361493  0.6326379009370982  1.0000
  C   C1653     1.0  0.5323436923973981  0.4293230543589378  0.6762684141721584  1.0000
  C   C1654     1.0  0.5572800040683357  0.4523782785427634  0.6905952885709987  1.0000
  C   C1655     1.0  0.5567428297372793  0.45841912667663276  0.7165084413763112  1.0000
  C   C1656     1.0  0.5776235378706095  0.47919357897197923  0.7282103420105349  1.0000
  C   C1657     1.0  0.6003496728018801  0.49630533444504166  0.714232856256294  1.0000
  C   C1658     1.0  0.6005990201361152  0.492560747609933  0.6873483603396494  1.0000
  C   C1659     1.0  0.579532823508356  0.47056239240334724  0.6761316462685256  1.0000
  C   C1660     1.0  0.48513229834861255  0.38953517541479704  0.682081729066143  1.0000
  C   C1661     1.0  0.46684215125904127  0.36517609062112427  0.6919947831196608  1.0000
  C   C1662     1.0  0.47170458823568195  0.35549003944713314  0.7141183980107005  1.0000
  C   C1663     1.0  0.4962042081906931  0.37165798096126584  0.7259017773960247  1.0000
  C   C1664     1.0  0.5150265308310542  0.39504129578038055  0.7149545251946114  1.0000
  C   C1665     1.0  0.5102367321777928  0.404739600355558  0.6927405076892558  1.0000
  C   C1666     1.0  0.4490454399734593  0.32754935776261707  0.7253682855733438  1.0000
  C   C1667     1.0  0.3942501435617632  0.35720784118628884  0.7406397314938692  1.0000
  C   C1668     1.0  0.38890872467959187  0.33912985109741434  0.7212962879885897  1.0000
  C   C1669     1.0  0.4048788129030563  0.32811628869222537  0.7176918232375309  1.0000
  C   C1670     1.0  0.42699609381362774  0.3351666934952303  0.7328274712395556  1.0000
  C   C1671     1.0  0.4318482442908279  0.3539561764613991  0.7529139233560598  1.0000
  C   C1672     1.0  0.41574957684302344  0.36448175805950656  0.7569665212381708  1.0000
  C   C1673     1.0  0.4567316510413691  0.3161963652900179  0.749336618188701  1.0000
  C   C1674     1.0  0.47989246431289995  0.3149687403731662  0.7478680606986299  1.0000
  C   C1675     1.0  0.4886954372012083  0.3079611959254088  0.769211613546397  1.0000
  C   C1676     1.0  0.4751912297460856  0.301787958865549  0.7921769815351141  1.0000
  C   C1677     1.0  0.45132091942702296  0.3011213997685488  0.7935950997983132  1.0000
  C   C1678     1.0  0.44181397510793735  0.3074012284781782  0.7722166274857889  1.0000
  C   C1679     1.0  0.41819911517329283  0.28056714110230774  0.7055592492046338  1.0000
  C   C1680     1.0  0.41120875060442724  0.26181107989192315  0.6868689936873421  1.0000
  C   C1681     1.0  0.4275771370582589  0.2666375654765896  0.6653911948972862  1.0000
  C   C1682     1.0  0.4520965549262091  0.2896207781506012  0.664200829143115  1.0000
  C   C1683     1.0  0.4593791736676613  0.3084025429967411  0.6835830720536802  1.0000
  C   C1684     1.0  0.44174633879645464  0.30498876572817724  0.7041488908224917  1.0000
  H   H1245     1.0  0.5370815103990765  0.4549444567939927  0.628294307515343  1.0000
  H   H1246     1.0  0.5021856927407015  0.44639421568838444  0.7036658382266825  1.0000
  H   H1247     1.0  0.47690215665080976  0.4662527481988579  0.6868899453661965  1.0000
  H   H1248     1.0  0.5133755114837735  0.4754018172570304  0.612573564481607  1.0000
  H   H1249     1.0  0.5384142559690303  0.4469849299559326  0.7278339877792619  1.0000
  H   H1250     1.0  0.5758783410260203  0.48299078757904657  0.7486168892206477  1.0000
  H   H1251     1.0  0.6168210049313536  0.5059286320146483  0.6743206840268067  1.0000
  H   H1252     1.0  0.5811727662185523  0.46793507556352737  0.6552936496716337  1.0000
  H   H1253     1.0  0.47987351239120574  0.3964238396567248  0.6648642989735037  1.0000
  H   H1254     1.0  0.4489530470516649  0.3533299863528324  0.6812283361468799  1.0000
  H   H1255     1.0  0.5008794097047984  0.36673133500638144  0.7444052137768645  1.0000
  H   H1256     1.0  0.534324396466607  0.4052974565090057  0.7234418951008994  1.0000
  H   H1257     1.0  0.3726704208688971  0.3343339549530251  0.7088921181186914  1.0000
  H   H1258     1.0  0.4002483378786048  0.31558295865856895  0.7004648872905964  1.0000
  H   H1259     1.0  0.4490160341166634  0.3611753964426267  0.7645207654473332  1.0000
  H   H1260     1.0  0.4217789823787564  0.3798236303788577  0.7720342702809453  1.0000
  H   H1261     1.0  0.49134188756035985  0.31950087759591683  0.729890356259414  1.0000
  H   H1262     1.0  0.5073315636398315  0.3084459182258027  0.7679118334693197  1.0000
  H   H1263     1.0  0.44084955111635843  0.2958001557180734  0.8120286972496384  1.0000
  H   H1264     1.0  0.4224091246855344  0.3047528998678617  0.7729130768106706  1.0000
  H   H1265     1.0  0.40409574021789196  0.2761342396407225  0.7218123200788921  1.0000
  H   H1266     1.0  0.3930818971551668  0.24319395134808713  0.6889581476649609  1.0000
  H   H1267     1.0  0.46621765852601277  0.2937077694249408  0.6482416637638974  1.0000
  H   H1268     1.0  0.4796059999311184  0.32564396541439866  0.682682537856995  1.0000
  C   C1685     1.0  0.4975189659765243  0.3392753764841185  0.8441410250345034  1.0000
  C   C1686     1.0  0.5237039402039081  0.35433907826076466  0.852038643980446  1.0000
  C   C1687     1.0  0.5334414581130885  0.3793423857878222  0.8626561012369293  1.0000
  C   C1688     1.0  0.5160341772469803  0.3892222656746336  0.8659695704483439  1.0000
  C   C1689     1.0  0.49052930399619676  0.37458267803026957  0.8557711467689484  1.0000
  C   C1690     1.0  0.48149518362893556  0.3501118618956344  0.8451284698990293  1.0000
  H   H1269     1.0  0.5358891500706828  0.34500495585279756  0.8526574944947559  1.0000
  H   H1270     1.0  0.5529014875910683  0.38909680590927315  0.8715295252258117  1.0000
  H   H1271     1.0  0.4768423712412518  0.38089950857130767  0.8583629470420457  1.0000
  H   H1272     1.0  0.4604672262129194  0.33909554722189034  0.8398905501854345  1.0000
  C   C1691     1.0  0.4975805770443065  0.43190642891188347  0.8629839562115948  1.0000
  C   C1692     1.0  0.5050355052273949  0.42599141297638304  0.8862635993831276  1.0000
  C   C1693     1.0  0.49846054506130755  0.4342349087858118  0.908678015816785  1.0000
  C   C1694     1.0  0.4859705134519272  0.4490533039265894  0.9084820788200914  1.0000
  C   C1695     1.0  0.47858050740252606  0.4545984010451653  0.8848978603170645  1.0000
  C   C1696     1.0  0.4852251580523849  0.4467300157596229  0.862411664983628  1.0000
  C   C1697     1.0  0.5223180034735353  0.4121098169864636  0.8865856344470006  1.0000
  C   C1698     1.0  0.5512619441551172  0.4383302041272106  0.8838871358093671  1.0000
  C   C1699     1.0  0.562642409976597  0.4556506906516027  0.9044042613245445  1.0000
  C   C1700     1.0  0.5859702267601105  0.47958251652861045  0.9008929151461718  1.0000
  C   C1701     1.0  0.598864128426944  0.4868649503522599  0.877145739140944  1.0000
  C   C1702     1.0  0.5876212607446074  0.4699715002465446  0.8565316151125517  1.0000
  C   C1703     1.0  0.5644123515015895  0.44594307908553393  0.8603184370684545  1.0000
  C   C1704     1.0  0.4902204220737654  0.37604391655512587  0.9188706195853878  1.0000
  C   C1705     1.0  0.48377710789756195  0.3657511060239527  0.9430426490784957  1.0000
  C   C1706     1.0  0.5027256547384833  0.3734144455095519  0.962304613832675  1.0000
  C   C1707     1.0  0.5291476618192924  0.3889336606736956  0.9549657063228494  1.0000
  C   C1708     1.0  0.5358319448954393  0.3978994628208529  0.9298489113110298  1.0000
  C   C1709     1.0  0.5164234422937175  0.39481939802369553  0.912782992896032  1.0000
  C   C1710     1.0  0.4926205447242169  0.36833253597139026  0.9913226890459905  1.0000
  C   C1711     1.0  0.4622345944612307  0.4245153799282688  0.9936448334523508  1.0000
  C   C1712     1.0  0.4454106718958326  0.39747516870035726  0.9970514212364519  1.0000
  C   C1713     1.0  0.45443352394290676  0.38026555791362254  0.9961105356582688  1.0000
  C   C1714     1.0  0.4814457835740847  0.3889239549088818  0.9929173446032402  1.0000
  C   C1715     1.0  0.4986844412095391  0.41647120893182893  0.9899608299204559  1.0000
  C   C1716     1.0  0.48900303782886334  0.4339656248058402  0.9903856834083362  1.0000
  C   C1717     1.0  0.5147699487734051  0.3744968492257126  0.5122995875138057  1.0000
  C   C1718     1.0  0.530257233598796  0.36281411576238515  0.5109299685072138  1.0000
  C   C1719     1.0  0.5476932505297896  0.36547428344796884  0.530167119600857  1.0000
  C   C1720     1.0  0.5497739024257765  0.38044201086975216  0.5518633590426727  1.0000
  C   C1721     1.0  0.5347314438050234  0.3926848105429185  0.5533146507973913  1.0000
  C   C1722     1.0  0.5170116116615334  0.38875099483585984  0.5344715256232735  1.0000
  C   C1723     1.0  0.4561992032537802  0.3303543721879936  0.5198577116634967  1.0000
  C   C1724     1.0  0.439409724454858  0.30408297128348544  0.5254137865004358  1.0000
  C   C1725     1.0  0.4386416235449808  0.28442245073812905  0.5102024796581035  1.0000
  C   C1726     1.0  0.4568796474641414  0.2916327453219408  0.9896834141726615  1.0000
  C   C1727     1.0  0.47302664517536125  0.3180050087941132  0.9837645648962994  1.0000
  C   C1728     1.0  0.4719858106745101  0.338018445957271  0.9977381707100119  1.0000
  H   H1273     1.0  0.504220702266158  0.4276912992578876  0.8448122547459493  1.0000
  H   H1274     1.0  0.5043618276841673  0.4319924644930399  0.9277382236634772  1.0000
  H   H1275     1.0  0.4816796788671334  0.4547696189837197  0.9273812691348471  1.0000
  H   H1276     1.0  0.47989449638685916  0.4519477554547783  0.8439198684243739  1.0000
  H   H1277     1.0  0.5525490196620271  0.45164463089021684  0.9231152745236638  1.0000
  H   H1278     1.0  0.5939168783156011  0.49297748730875857  0.9168064912241786  1.0000
  H   H1279     1.0  0.5976760058696461  0.4758175448910387  0.8379835594156332  1.0000
  H   H1280     1.0  0.5560566378798535  0.43401948715352134  0.8432292390102851  1.0000
  H   H1281     1.0  0.47395402043245716  0.3711117501050185  0.9054305055943563  1.0000
  H   H1282     1.0  0.4630344136657592  0.35405174785447013  0.9474948808350515  1.0000
  H   H1283     1.0  0.5453988063765933  0.39588397962633837  0.9689742316013191  1.0000
  H   H1284     1.0  0.556812741931005  0.40959776126940256  0.9244810135897272  1.0000
  H   H1285     1.0  0.42421716538377885  0.39021552977590174  0.9999536167518359  1.0000
  H   H1286     1.0  0.4391072363867198  0.3597171668777757  0.9985199787265227  1.0000
  H   H1287     1.0  0.5193609537505807  0.4234932682817098  0.9865251425823903  1.0000
  H   H1288     1.0  0.5020130508218709  0.4548390357146197  0.9886028507354496  1.0000
  H   H1289     1.0  0.5287471571594569  0.3515178770347855  0.9934585963069784  1.0000
  H   H1290     1.0  0.5598427049358494  0.35662853261775046  0.5277215930856876  1.0000
  H   H1291     1.0  0.5372040387491598  0.4058048831916611  0.5697640466623963  1.0000
  H   H1292     1.0  0.5055567671961845  0.39817964917902166  0.5385869785419476  1.0000
  H   H1293     1.0  0.45592286947939026  0.34430698507843027  0.5334353875051139  1.0000
  H   H1294     1.0  0.4277565738591471  0.2992534541400741  0.5427934160660172  1.0000
  H   H1295     1.0  0.4573776325055174  0.2760900128697169  0.9788118208115558  1.0000
  H   H1296     1.0  0.48684970317299386  0.32246775272530326  0.9675328336949482  1.0000
  C   C1729     1.0  0.3219700821507327  0.5098999263946803  0.8766044874372058  1.0000
  C   C1730     1.0  0.3411895609902942  0.5313118563088014  0.8629354569549876  1.0000
  C   C1731     1.0  0.3601312890925033  0.5292023009592441  0.8485486374749804  1.0000
  C   C1732     1.0  0.36079315971754433  0.5054770493839558  0.8491946475729905  1.0000
  C   C1733     1.0  0.3399435441332821  0.483527570357589  0.8625998420992648  1.0000
  C   C1734     1.0  0.320573396708079  0.4860650169926148  0.8747518158348048  1.0000
  H   H1297     1.0  0.3421068824481435  0.5502793448890642  0.8647726087952744  1.0000
  H   H1298     1.0  0.37512123590944824  0.5459921189601338  0.8373453091986802  1.0000
  H   H1299     1.0  0.3387530376020737  0.46433121310819153  0.8637405446146696  1.0000
  H   H1300     1.0  0.30461162430225036  0.46918429174934234  0.8856990680362179  1.0000
  C   C1735     1.0  0.4002020302889878  0.4937488311289759  0.8770118811927078  1.0000
  C   C1736     1.0  0.39530058013600616  0.4887177187394419  0.850864961970548  1.0000
  C   C1737     1.0  0.40317077748369634  0.472535189763955  0.838654789127079  1.0000
  C   C1738     1.0  0.4149637156438149  0.46122886407928276  0.8523955985090762  1.0000
  C   C1739     1.0  0.41940636252661256  0.4661270515283514  0.8783310609724277  1.0000
  C   C1740     1.0  0.41170191598901695  0.481972787479939  0.891101885222278  1.0000
  C   C1741     1.0  0.38322620064182933  0.5029810086216705  0.8346953098176542  1.0000
  C   C1742     1.0  0.41021284970839683  0.5293530226160202  0.826983928017084  1.0000
  C   C1743     1.0  0.4240092875154219  0.5309329850384756  0.8037023448752867  1.0000
  C   C1744     1.0  0.4480569364636782  0.5530907486806196  0.7987437808797505  1.0000
  C   C1745     1.0  0.4605644226891635  0.5733445065890346  0.8167583447539881  1.0000
  C   C1746     1.0  0.4474247333558406  0.5713593094799503  0.8395549353297117  1.0000
  C   C1747     1.0  0.4225261127318441  0.5502603107205645  0.8445367789684195  1.0000
  C   C1748     1.0  0.35088463154473026  0.4593788353869996  0.8092332000987903  1.0000
  C   C1749     1.0  0.33482558444822486  0.4461338163309831  0.7888305328292061  1.0000
  C   C1750     1.0  0.3322512600240173  0.45936330338056147  0.7685733633294441  1.0000
  C   C1751     1.0  0.3462873959682743  0.4870810616622521  0.7696655665882419  1.0000
  C   C1752     1.0  0.3626986504356379  0.5007288659469216  0.7900721137983545  1.0000
  C   C1753     1.0  0.3651294132672755  0.4869664780288279  0.8104825409489959  1.0000
  C   C1754     1.0  0.3182155677779049  0.44237768515667997  0.7431093136403157  1.0000
  C   C1755     1.0  0.3662438891681749  0.40465813293025643  0.7269435414279508  1.0000
  C   C1756     1.0  0.33873664852965757  0.3892628065626233  0.7273431753023952  1.0000
  C   C1757     1.0  0.32420926101163733  0.401438131967758  0.7318109268210654  1.0000
  C   C1758     1.0  0.3359145952116461  0.42922826047065415  0.7345909042097993  1.0000
  C   C1759     1.0  0.3632103740733072  0.443770712602695  0.7327634522208339  1.0000
  C   C1760     1.0  0.3786842414925351  0.43216995093131555  0.729455802920212  1.0000
  C   C1761     1.0  0.3171391471904007  0.4615372752553275  0.7222895527639085  1.0000
  C   C1762     1.0  0.30082868759359155  0.47252463835695924  0.7266040466316992  1.0000
  C   C1763     1.0  0.30187967218454415  0.4921337430944933  0.7111289038334229  1.0000
  C   C1764     1.0  0.3187305529208008  0.5010647897722247  0.6900210573727679  1.0000
  C   C1765     1.0  0.33560341154333134  0.4912414411686317  0.6858658350636756  1.0000
  C   C1766     1.0  0.3339780382714364  0.47101160561829886  0.7008994406297986  1.0000
  C   C1767     1.0  0.27131094259359034  0.40560569275581665  0.727445993726403  1.0000
  C   C1768     1.0  0.24471037795853615  0.3869927490264429  0.730720663532532  1.0000
  C   C1769     1.0  0.23242896102212837  0.38283357961166303  0.7549082127877544  1.0000
  C   C1770     1.0  0.24709175114030202  0.39649331095748125  0.7753263998194528  1.0000
  C   C1771     1.0  0.2740136158923351  0.41534138480345384  0.7721041092104598  1.0000
  C   C1772     1.0  0.28698282124512214  0.420057758415131  0.7482696345433391  1.0000
  H   H1301     1.0  0.39491041966475043  0.5066772193299912  0.8866826329602153  1.0000
  H   H1302     1.0  0.4019922950701078  0.46954927067672986  0.8177147500942853  1.0000
  H   H1303     1.0  0.4201883424694978  0.4483096035422874  0.8417412818175712  1.0000
  H   H1304     1.0  0.4133466430285994  0.4838310372128268  0.9117412288641058  1.0000
  H   H1305     1.0  0.4168208450132253  0.5148930831516219  0.789916916177211  1.0000
  H   H1306     1.0  0.45814473168078096  0.554077940596442  0.780618638700448  1.0000
  H   H1307     1.0  0.4555898947089635  0.5873178611875775  0.853836996415447  1.0000
  H   H1308     1.0  0.41283254203573155  0.5499213083935122  0.862623121742436  1.0000
  H   H1309     1.0  0.3515772472179705  0.44720343252894446  0.824118591936721  1.0000
  H   H1310     1.0  0.32456738455661155  0.4246314787440487  0.7889934903314069  1.0000
  H   H1311     1.0  0.3459125956129722  0.49897534841715835  0.7535191940785196  1.0000
  H   H1312     1.0  0.37414853700403294  0.5225222079106696  0.7893252252466012  1.0000
  H   H1313     1.0  0.3282534343060016  0.3682786296670667  0.7244797791922969  1.0000
  H   H1314     1.0  0.303064515856845  0.38771035695569595  0.7351631954377661  1.0000
  H   H1315     1.0  0.37325662367134466  0.46489856890923587  0.7362165992912779  1.0000
  H   H1316     1.0  0.39974018078057  0.44369577623843104  0.7293840240204331  1.0000
  H   H1317     1.0  0.2873144666727461  0.46611423347132025  0.7432955507856881  1.0000
  H   H1318     1.0  0.2892432608276324  0.5002622622011519  0.715249400674784  1.0000
  H   H1319     1.0  0.35047802741961065  0.4986622872606769  0.6699670027596774  1.0000
  H   H1320     1.0  0.3463782250920761  0.4630577176305334  0.6951726484096016  1.0000
  H   H1321     1.0  0.28027962937511236  0.4079771768598605  0.7079415326891872  1.0000
  H   H1322     1.0  0.23291955416431304  0.3759739671282873  0.7144074535800802  1.0000
  H   H1323     1.0  0.23748359309851988  0.3932315583467599  0.7938725155461073  1.0000
  H   H1324     1.0  0.2839267593916205  0.42627935628632346  0.788745174137577  1.0000
  C   C1773     1.0  0.3256644841706277  0.5075860145318961  0.6255837810620709  1.0000
  C   C1774     1.0  0.3454191866410073  0.5294695125442581  0.6122340696853555  1.0000
  C   C1775     1.0  0.3654154342929422  0.5280906485751993  0.6000692921460712  1.0000
  C   C1776     1.0  0.3668301644350497  0.505139940585815  0.6004485563327407  1.0000
  C   C1777     1.0  0.3456432930212381  0.48266708599665953  0.6116520786060672  1.0000
  C   C1778     1.0  0.3250874425116574  0.48354075296163074  0.6240366547762962  1.0000
  H   H1325     1.0  0.3444888194283614  0.5477772814726717  0.612103703683595  1.0000
  H   H1326     1.0  0.3810670732064696  0.5461182999953356  0.5908835329446372  1.0000
  H   H1327     1.0  0.3455521036732021  0.4638542459858588  0.6113393553994629  1.0000
  H   H1328     1.0  0.3097878147115923  0.46583079728325194  0.6336451334983199  1.0000
  C   C1779     1.0  0.4011376616193755  0.484426636972022  0.6263659770726343  1.0000
  C   C1780     1.0  0.40095598245358516  0.48625231881100744  0.5998256318808758  1.0000
  C   C1781     1.0  0.4155160099850323  0.47728585073303104  0.5858692918025155  1.0000
  C   C1782     1.0  0.4294003530116904  0.4672395341958072  0.5978111667584325  1.0000
  C   C1783     1.0  0.42965899888114745  0.4661627543720219  0.6239968853858782  1.0000
  C   C1784     1.0  0.4156490072173493  0.4749942656395261  0.6383771089669866  1.0000
  C   C1785     1.0  0.3899318298009382  0.5029750531984379  0.5859049872553784  1.0000
  C   C1786     1.0  0.4177443539198755  0.5298473952003171  0.5807433083731705  1.0000
  C   C1787     1.0  0.4331249871309393  0.5332484983544148  0.5585289028737618  1.0000
  C   C1788     1.0  0.45656752050004334  0.556078764840404  0.5540347677594974  1.0000
  C   C1789     1.0  0.4669349185871444  0.5756112557316126  0.5724920328480471  1.0000
  C   C1790     1.0  0.45364803976580353  0.5717591876095608  0.5954269433036147  1.0000
  C   C1791     1.0  0.42956389469614137  0.5493519942635654  0.5998163200236072  1.0000
  C   C1792     1.0  0.36300840955954927  0.4627505738652177  0.5555244709254491  1.0000
  C   C1793     1.0  0.35229106125555393  0.45214196619218616  0.5319165847851978  1.0000
  C   C1794     1.0  0.3531709248658776  0.4682067750240924  0.5111608249686649  1.0000
  C   C1795     1.0  0.36349053478442045  0.4949403065251637  0.5169807357615481  1.0000
  C   C1796     1.0  0.3734856659072464  0.5058041330627848  0.5405366486575635  1.0000
  C   C1797     1.0  0.37548678219601406  0.4900336453731136  0.5597293564733071  1.0000
  C   C1798     1.0  0.3477721194299688  0.45822009782070594  0.9813842213820103  1.0000
  C   C1799     1.0  0.41872577990331494  0.4524924888774007  0.9716281109228737  1.0000
  C   C1800     1.0  0.39464410997407995  0.4302538863039469  0.9775469601992358  1.0000
  C   C1801     1.0  0.37233236637990386  0.43217816966380806  0.9781619307730173  1.0000
  C   C1802     1.0  0.37369436512503473  0.4565107830224698  0.975279134960276  1.0000
  C   C1803     1.0  0.3983730398600299  0.47893414467892464  0.9714457537180299  1.0000
  C   C1804     1.0  0.4209644376430948  0.47714701250270475  0.9684737192731311  1.0000
  C   C1805     1.0  0.34128385366009195  0.477151637008006  0.9645336396663492  1.0000
  C   C1806     1.0  0.32090954668333543  0.48155775559107633  0.9722430814966551  1.0000
  C   C1807     1.0  0.3155848196660839  0.49902945594323206  0.9591948414990109  1.0000
  C   C1808     1.0  0.33010146160180687  0.5116556659507977  0.9374031555201922  1.0000
  C   C1809     1.0  0.3507559316765684  0.5076361010264709  0.929784892292308  1.0000
  C   C1810     1.0  0.3553045785774626  0.48973110662356  0.9423927590399571  1.0000
  C   C1811     1.0  0.3180139764295012  0.41863423554907936  0.9514640599957976  1.0000
  C   C1812     1.0  0.2967094439124918  0.3939287424354107  0.9468624505288916  1.0000
  C   C1813     1.0  0.27753223192617577  0.3802168583436548  0.9658217799218407  1.0000
  C   C1814     1.0  0.2791223548830647  0.3928390434616346  0.988934585650644  1.0000
  C   C1815     1.0  0.30111555643343796  0.41797123426879496  0.9941686254237103  1.0000
  C   C1816     1.0  0.32101421898244276  0.43034873069778634  0.9759484247014574  1.0000
  H   H1329     1.0  0.39101931761890263  0.49079730779309827  0.6389336864358128  1.0000
  H   H1330     1.0  0.41708111373057966  0.4786318681539788  0.5652823273578235  1.0000
  H   H1331     1.0  0.44071182233023637  0.46163405714041766  0.5847827144574842  1.0000
  H   H1332     1.0  0.41601513697290515  0.474318578931438  0.658860672996592  1.0000
  H   H1333     1.0  0.426834831506305  0.5183935905969327  0.5433307878292266  1.0000
  H   H1334     1.0  0.4660805390455472  0.5572250636517547  0.5360399915819555  1.0000
  H   H1335     1.0  0.46306588889048395  0.5873095557590525  0.6095225732469512  1.0000
  H   H1336     1.0  0.419290607280759  0.5473648910436422  0.6182208179209681  1.0000
  H   H1337     1.0  0.3614464323750791  0.4491434118706354  0.5704201446057807  1.0000
  H   H1338     1.0  0.34447850633303356  0.43114724140219307  0.5279867870208166  1.0000
  H   H1339     1.0  0.36732407665249167  0.510114099492654  0.5023009807716324  1.0000
  H   H1340     1.0  0.38143252563395125  0.5268871437580905  0.5436716406046631  1.0000
  H   H1341     1.0  0.3932589390650074  0.4112948282464802  0.9805558540791564  1.0000
  H   H1342     1.0  0.3541158754285815  0.41459534957033617  0.9835569880780201  1.0000
  H   H1343     1.0  0.4000236219650392  0.4983417940302808  0.9697056003909581  1.0000
  H   H1344     1.0  0.44017849843144896  0.4942368052832397  0.9644812604692131  1.0000
  H   H1345     1.0  0.30862397787260515  0.4712759238432272  0.9892411009524025  1.0000
  H   H1346     1.0  0.29996861147523063  0.502067853827574  0.966219473826021  1.0000
  H   H1347     1.0  0.362249886241662  0.5178286907579343  0.9126336151856813  1.0000
  H   H1348     1.0  0.37128920672435645  0.4871170785535062  0.9348579145334379  1.0000
  H   H1349     1.0  0.3329840538502051  0.4276923214211818  0.9367726651842964  1.0000
  H   H1350     1.0  0.29420967574145973  0.3852140744939448  0.9277459835445344  1.0000
  H   H1351     1.0  0.2632073312699402  0.3834208762184077  0.5027394140513629  1.0000
  H   H1352     1.0  0.301515048196961  0.4283066956395745  0.5115294193188809  1.0000
  C   C1817     1.0  0.6137196636378843  0.7775102372992136  0.7272306570270661  1.0000
  C   C1818     1.0  0.5899655804876635  0.7638463925464664  0.7405213933077471  1.0000
  C   C1819     1.0  0.5819343885647865  0.7396652688193569  0.7521515150421921  1.0000
  C   C1820     1.0  0.5988380454111265  0.7289014625277143  0.7508847144596079  1.0000
  C   C1821     1.0  0.6223798167091519  0.7430970057318298  0.7365696738793795  1.0000
  C   C1822     1.0  0.6297084118129669  0.7666231424741498  0.7246097572000046  1.0000
  H   H1353     1.0  0.5777344130495925  0.7728403332520938  0.7427698188440645  1.0000
  H   H1354     1.0  0.5641893847654177  0.7314800943058714  0.7644994257744259  1.0000
  H   H1355     1.0  0.6366608512649207  0.7365808387821003  0.7370740661480961  1.0000
  H   H1356     1.0  0.6488249885314484  0.7776526853126473  0.7151116627860191  1.0000
  C   C1823     1.0  0.6016424408394125  0.6806659590221392  0.7326431740644477  1.0000
  C   C1824     1.0  0.6039945348902167  0.6865510884113781  0.7586135559925566  1.0000
  C   C1825     1.0  0.6141343713847373  0.6741774062445776  0.7737705436674888  1.0000
  C   C1826     1.0  0.626064186362281  0.6608878608438473  0.7629261098900831  1.0000
  C   C1827     1.0  0.6267138211369014  0.6587352388248627  0.7364416358419361  1.0000
  C   C1828     1.0  0.6128831662476262  0.6671415440805056  0.7216648823388057  1.0000
  C   C1829     1.0  0.5949728915709883  0.706122428866086  0.7705346732666458  1.0000
  C   C1830     1.0  0.5653077511413236  0.685140302320266  0.7801239462830529  1.0000
  C   C1831     1.0  0.5602563921396232  0.673996370948556  0.8048139478367277  1.0000
  C   C1832     1.0  0.5352614709542  0.6553828826776471  0.8132469985756153  1.0000
  C   C1833     1.0  0.5143918189433588  0.645567607182964  0.7959676834315451  1.0000
  C   C1834     1.0  0.5185130720572273  0.6557470833115994  0.771070105059591  1.0000
  C   C1835     1.0  0.54385705906413  0.6749830830191125  0.7631453265299484  1.0000
  C   C1836     1.0  0.6415303038937649  0.7358733397892209  0.7918219669767481  1.0000
  C   C1837     1.0  0.6580530402108741  0.7540528016501148  0.8093651180767623  1.0000
  C   C1838     1.0  0.6483727969759648  0.7638952382128494  0.8287512409278562  1.0000
  C   C1839     1.0  0.6215693171253085  0.7562634170228955  0.8276920171635513  1.0000
  C   C1840     1.0  0.6048844476445417  0.7371163419896647  0.8109287341097836  1.0000
  C   C1841     1.0  0.6144317608043283  0.7258421841823582  0.7927880721683667  1.0000
  C   C1842     1.0  0.6684425092976869  0.7837902351628633  0.8498309578196789  1.0000
  C   C1843     1.0  0.7242448306967826  0.7553863490602566  0.8699930687764906  1.0000
  C   C1844     1.0  0.7330614397786581  0.7823533365106642  0.8689066854284858  1.0000
  C   C1845     1.0  0.7160605802722722  0.7916295023255553  0.8639636411950636  1.0000
  C   C1846     1.0  0.6886177047265953  0.7739501275241861  0.8596452673867443  1.0000
  C   C1847     1.0  0.6797866374818751  0.7467013168098362  0.8628093588878083  1.0000
  C   C1848     1.0  0.6974210424485137  0.7378637186014433  0.8665438016465752  1.0000
  C   C1849     1.0  0.6499839046207039  0.7827643686415089  0.874437540651989  1.0000
  C   C1850     1.0  0.640978089097707  0.8005652462498335  0.8763037920462402  1.0000
  C   C1851     1.0  0.6217607878106893  0.7980174755882786  0.893567587428196  1.0000
  C   C1852     1.0  0.6107489862283296  0.7769019950511417  0.9105617269434146  1.0000
  C   C1853     1.0  0.6201469153007988  0.7596415341982071  0.9099331765777835  1.0000
  C   C1854     1.0  0.6388032178831947  0.7619565199244224  0.8918836932387885  1.0000
  C   C1855     1.0  0.6987880272971798  0.834763116501081  0.8551193167601455  1.0000
  C   C1856     1.0  0.7164823294631042  0.8602074341918597  0.8463060318494562  1.0000
  C   C1857     1.0  0.7224332268953659  0.8653330329743789  0.8204617479885262  1.0000
  C   C1858     1.0  0.7112559469241541  0.8443037009884451  0.8036596655294723  1.0000
  C   C1859     1.0  0.6928489483497214  0.8190690374952531  0.8123856517782686  1.0000
  C   C1860     1.0  0.6866034343732199  0.8136396299800442  0.8384530322195924  1.0000
  H   H1357     1.0  0.5913127183711135  0.6869789249709515  0.7196085138586537  1.0000
  H   H1358     1.0  0.6139640182149846  0.6754129262000499  0.7952169149392633  1.0000
  H   H1359     1.0  0.6346400090639553  0.6522827662259407  0.7762634054571071  1.0000
  H   H1360     1.0  0.611243966047833  0.6633661806347694  0.7006627642575547  1.0000
  H   H1361     1.0  0.5762323746898208  0.6801312459673925  0.8181609432550729  1.0000
  H   H1362     1.0  0.5328820301989443  0.6475521240376961  0.8326176016645949  1.0000
  H   H1363     1.0  0.502620210249386  0.6476895504289073  0.7565998668582192  1.0000
  H   H1364     1.0  0.5466668019260449  0.6813752311501231  0.7434332886744529  1.0000
  H   H1365     1.0  0.6506481012654232  0.728840024043904  0.7782014357511372  1.0000
  H   H1366     1.0  0.6793860943313207  0.7608650120839313  0.8085716702386658  1.0000
  H   H1367     1.0  0.611993413544094  0.7637263253103785  0.8404162821270583  1.0000
  H   H1368     1.0  0.5843131281602658  0.7310659756597918  0.8116853225128582  1.0000
  H   H1369     1.0  0.7531673135286195  0.7974071870065559  0.8724025118447442  1.0000
  H   H1370     1.0  0.7250527488251063  0.8128345790979962  0.8625998420992648  1.0000
  H   H1371     1.0  0.6590891840094758  0.7323119731367904  0.8604076757006119  1.0000
  H   H1372     1.0  0.6905209783482743  0.7166804621735996  0.867319789752293  1.0000
  H   H1373     1.0  0.6476719771881145  0.8159968818865061  0.862056650425262  1.0000
  H   H1374     1.0  0.6149038795513582  0.8118340249141873  0.8930088759920792  1.0000
  H   H1375     1.0  0.6118569774829977  0.7429713206403002  0.9223955455556105  1.0000
  H   H1376     1.0  0.6433394322615836  0.7460379688253104  0.8919050329116958  1.0000
  H   H1377     1.0  0.6962054420646148  0.831413914999021  0.8760690556442605  1.0000
  H   H1378     1.0  0.7259386004743891  0.8764956961349384  0.8597480858107519  1.0000
  H   H1379     1.0  0.7166658575178403  0.8481252151139519  0.7834199557620889  1.0000
  H   H1380     1.0  0.6860890400387352  0.804214497048637  0.7976961969370315  1.0000
  C   C1861     1.0  0.6017256830318102  0.7707361997427923  0.976716652926118  1.0000
  C   C1862     1.0  0.5813864720963263  0.7568826898247003  0.9944441012012402  1.0000
  C   C1863     1.0  0.5819760707352748  0.7384409331625097  0.5109066888640423  1.0000
  C   C1864     1.0  0.6020148032076309  0.7323166628676807  0.508584544457682  1.0000
  C   C1865     1.0  0.6234028746411958  0.7483030829536977  0.9923295336131591  1.0000
  C   C1866     1.0  0.6233192599696069  0.7674081279139294  0.9767185928963822  1.0000
  H   H1381     1.0  0.5649771192561541  0.760516557035379  0.9954684055007875  1.0000
  H   H1382     1.0  0.5656855378216643  0.7279693279856123  0.5242116048864996  1.0000
  H   H1383     1.0  0.6406231060413516  0.7462262717070776  0.9920210783411364  1.0000
  H   H1384     1.0  0.6406622329608176  0.7805804492709729  0.9649837127676654  1.0000
  C   C1867     1.0  0.6099554292376497  0.6868111185342928  0.9878152228081462  1.0000
  C   C1868     1.0  0.612224749804823  0.6932005248472471  0.5138535036955055  1.0000
  C   C1869     1.0  0.6242314992637031  0.6828612286050775  0.5294330348528481  1.0000
  C   C1870     1.0  0.6338835706458537  0.6674257348847835  0.5193804789784803  1.0000
  C   C1871     1.0  0.6326048972710531  0.662684367422868  0.9930434426704194  1.0000
  C   C1872     1.0  0.6205941671992752  0.6725208925107415  0.9774907010615713  1.0000
  C   C1873     1.0  0.6019400622169566  0.7107602230023435  0.5274771568323865  1.0000
  C   C1874     1.0  0.5734417111965823  0.6871385927228664  0.5362504783556314  1.0000
  C   C1875     1.0  0.568304041671571  0.6751446051252429  0.5605020466295756  1.0000
  C   C1876     1.0  0.5426999127236328  0.6555945453737809  0.5681142959496404  1.0000
  C   C1877     1.0  0.522745103808657  0.645901658115876  0.5506000504065641  1.0000
  C   C1878     1.0  0.5281332184567743  0.6560733466608489  0.5256434969385754  1.0000
  C   C1879     1.0  0.5527053874211166  0.675889792343741  0.5183445348573471  1.0000
  C   C1880     1.0  0.6483384679475666  0.7445411290672369  0.5462626648896547  1.0000
  C   C1881     1.0  0.664276556630429  0.7643141545390532  0.5630824010781136  1.0000
  C   C1882     1.0  0.6541706956941777  0.7676457611762221  0.5862922053201316  1.0000
  C   C1883     1.0  0.6269257086239307  0.751326644890967  0.5906035952354995  1.0000
  C   C1884     1.0  0.6105925537455265  0.7347262131560357  0.5718933580244858  1.0000
  C   C1885     1.0  0.6209572372799615  0.7301028141868625  0.5498209583484235  1.0000
  C   C1886     1.0  0.6732603089656296  0.7873066424400326  0.6082493707624949  1.0000
  C   C1887     1.0  0.6956113465279399  0.7295657719191994  0.6317024472756555  1.0000
  C   C1888     1.0  0.7114461379915418  0.7492206826058753  0.6143746328749781  1.0000
  C   C1889     1.0  0.7061505510034982  0.76912150807769  0.6086912959887012  1.0000
  C   C1890     1.0  0.6840801626066463  0.7688308397186925  0.6191463777340629  1.0000
  C   C1891     1.0  0.6682312104206276  0.7484623900383135  0.6369944921596241  1.0000
  C   C1892     1.0  0.6739778201715209  0.7291738681443447  0.6432604021162684  1.0000
  C   C1893     1.0  0.6600015570245024  0.7972583353956706  0.6296361849471556  1.0000
  C   C1894     1.0  0.6372764183633088  0.798596075706175  0.6253546705738579  1.0000
  C   C1895     1.0  0.6243257397901054  0.8034826616047436  0.6455650867902504  1.0000
  C   C1896     1.0  0.634536342955393  0.8090600970856614  0.6698558424635332  1.0000
  C   C1897     1.0  0.6590661721733457  0.8108611776923631  0.6734544873037994  1.0000
  C   C1898     1.0  0.6711778969118953  0.8044732612592104  0.6538089904283693  1.0000
  C   C1899     1.0  0.7201561967437518  0.8292756791491864  0.6093980271559836  1.0000
  C   C1900     1.0  0.7393876234826345  0.8537703213879245  0.6007438198069663  1.0000
  C   C1901     1.0  0.7347286240596572  0.8657445814512663  0.5801667492106222  1.0000
  C   C1902     1.0  0.710252940271526  0.8530865094762489  0.5682753134815768  1.0000
  C   C1903     1.0  0.6911922911176145  0.8275605437590108  0.5764313364667233  1.0000
  C   C1904     1.0  0.6960073165795349  0.8158213033778061  0.5970953177309078  1.0000
  H   H1385     1.0  0.6007989805671722  0.6939479239873108  0.9746874440296661  1.0000
  H   H1386     1.0  0.6256247653912481  0.6861774002198068  0.5506105262459914  1.0000
  H   H1387     1.0  0.6443489133248451  0.6616462952003064  0.5326318518216431  1.0000
  H   H1388     1.0  0.6199776949406273  0.6697302437033968  0.9572199517699593  1.0000
  H   H1389     1.0  0.5843955924437162  0.6810267212522894  0.5736973363732532  1.0000
  H   H1390     1.0  0.5383707909887994  0.6490652714266231  0.5883049244693371  1.0000
  H   H1391     1.0  0.5122937651243558  0.6483440517932164  0.5114751001514807  1.0000
  H   H1392     1.0  0.5550170005008429  0.6835059470422885  0.9993619258212262  1.0000
  H   H1393     1.0  0.6568833192516311  0.7403874823944068  0.5294419587160638  1.0000
  H   H1394     1.0  0.6848166530715124  0.776458003541636  0.5580635040073575  1.0000
  H   H1395     1.0  0.6180872999797241  0.7513585217884028  0.6086942059440975  1.0000
  H   H1396     1.0  0.5895592500512662  0.724311202872666  0.5762889426493241  1.0000
  H   H1397     1.0  0.7274696825834169  0.7479573326850169  0.6053714248754142  1.0000
  H   H1398     1.0  0.7176852623726621  0.7828616613742793  0.5933628149424054  1.0000
  H   H1399     1.0  0.6507097624250853  0.7457935511115438  0.6465983149530136  1.0000
  H   H1400     1.0  0.660326630461851  0.7133180233120726  0.6560969913580782  1.0000
  H   H1401     1.0  0.6283654284240813  0.7952877928729517  0.6060750520902737  1.0000
  H   H1402     1.0  0.6048034479904336  0.8004537439445619  0.6418112443288407  1.0000
  H   H1403     1.0  0.6688901011015743  0.8167052272006144  0.6923175941716394  1.0000
  H   H1404     1.0  0.6890400292496729  0.8040730416692924  0.6586144907700529  1.0000
  H   H1405     1.0  0.7236248267477895  0.8216654122205208  0.6265396044112888  1.0000
  H   H1406     1.0  0.7575654189959462  0.8647235663290614  0.6126090659374437  1.0000
  H   H1407     1.0  0.7060368299773238  0.8619595192548065  0.5522210895594084  1.0000
  H   H1408     1.0  0.6719999889267448  0.8186693142586782  0.5676304673657253  1.0000
  C   C1905     1.0  0.8873388760919773  0.3441614678518175  0.596395182462524  1.0000
  C   C1906     1.0  0.8844797173934982  0.3623910390328837  0.5814349077723914  1.0000
  C   C1907     1.0  0.9048690157398288  0.38047298055306733  0.565873048303301  1.0000
  C   C1908     1.0  0.9297795871106236  0.38215096798846293  0.5661859655069317  1.0000
  C   C1909     1.0  0.9313228525377087  0.3619505939012277  0.5794895055913569  1.0000
  C   C1910     1.0  0.9102314607441737  0.3431146330626429  0.5945120533269734  1.0000
  H   H1409     1.0  0.8659564965304666  0.3625276449849146  0.5823658995022263  1.0000
  H   H1410     1.0  0.902179056815344  0.3942847738849342  0.5537076887729373  1.0000
  H   H1411     1.0  0.9492623230705904  0.36140501960832144  0.5798645018434451  1.0000
  H   H1412     1.0  0.9121576895271203  0.3282931579163969  0.6056472886469968  1.0000
  C   C1911     1.0  0.9856343818664397  0.41932332442711245  0.5907159195138022  1.0000
  C   C1912     1.0  0.9828511500833155  0.41901939061234245  0.5641670384528805  1.0000
  C   C1913     1.0  0.0063527966291831535  0.4335065939986575  0.5496865184091079  1.0000
  C   C1914     1.0  0.03048066201784195  0.44744393380490505  0.5612392353300075  1.0000
  C   C1915     1.0  0.0323431605478412  0.4462880993729058  0.5878273037902678  1.0000
  C   C1916     1.0  0.00951627278932762  0.43252179698020576  0.6026030873082661  1.0000
  C   C1917     1.0  0.9549470629474179  0.40447793989863734  0.5507170306135011  1.0000
  C   C1918     1.0  0.9524744301382899  0.42978314521701866  0.5436270212885844  1.0000
  C   C1919     1.0  0.9591613955627099  0.44181526975874713  0.5193552593650445  1.0000
  C   C1920     1.0  0.9560294480789545  0.46319842586546184  0.5134364100886822  1.0000
  C   C1921     1.0  0.947886732113206  0.47421970691564747  0.5320277450813417  1.0000
  C   C1922     1.0  0.942922760614789  0.4637894864167354  0.556767215876756  1.0000
  C   C1923     1.0  0.9454309798285497  0.4424254853142854  0.5623081589456337  1.0000
  C   C1924     1.0  0.9709284273661889  0.3755548533569377  0.5262200561011237  1.0000
  C   C1925     1.0  0.9711020674814449  0.3604922983016781  0.5061751013894283  1.0000
  C   C1926     1.0  0.9529063194654869  0.35376740577478305  0.9859004721572877  1.0000
  C   C1927     1.0  0.9351594024716549  0.36302754749489297  0.9878385024513177  1.0000
  C   C1928     1.0  0.9361734740338938  0.3792965950825189  0.5072886443211333  1.0000
  C   C1929     1.0  0.9549213228500459  0.3867740376985017  0.5266334637644448  1.0000
  C   C1930     1.0  0.9565045557950136  0.3391299754113089  0.9606866786322533  1.0000
  C   C1931     1.0  0.04451124458918516  0.3811564301839409  0.9494930502072749  1.0000
  C   C1932     1.0  0.029256308304161364  0.35438885729171404  0.9468352909451913  1.0000
  C   C1933     1.0  0.0024490139293887477  0.3414141373286659  0.947287304016772  1.0000
  C   C1934     1.0  0.9886019718843048  0.35462707982864167  0.9527793598349895  1.0000
  C   C1935     1.0  0.004319252055280153  0.38233811766940445  0.9541024195552381  1.0000
  C   C1936     1.0  0.03201040041320389  0.3956643769215776  0.9528433788537112  1.0000
  C   C1937     1.0  0.9379627635167013  0.3399067982218846  0.9378842681457371  1.0000
  C   C1938     1.0  0.9111442332013435  0.3210551803607012  0.9372266182261414  1.0000
  C   C1939     1.0  0.8942385776313231  0.32093096551301153  0.9187037821426585  1.0000
  C   C1940     1.0  0.9038902047334854  0.342538407554064  0.9025108503465931  1.0000
  C   C1941     1.0  0.9301037930908739  0.3626860819752597  0.9031917799093604  1.0000
  C   C1942     1.0  0.9470009243065985  0.36082756315634074  0.920670911990653  1.0000
  C   C1943     1.0  0.943661233553645  0.2917508242993191  0.9452794347932274  1.0000
  C   C1944     1.0  0.9375326240786972  0.26603596613290054  0.9489013592766649  1.0000
  C   C1945     1.0  0.9336505443548275  0.25582991343993033  0.9733799040715315  1.0000
  C   C1946     1.0  0.9361855422079834  0.2715880803479956  0.9942035448884675  1.0000
  C   C1947     1.0  0.942907193014897  0.29758421091654264  0.9905467009402726  1.0000
  C   C1948     1.0  0.9474985723326531  0.308508399972644  0.9659808574835126  1.0000
  H   H1413     1.0  0.9684230062988977  0.41134565125963424  0.6036497012658528  1.0000
  H   H1414     1.0  0.005089927685122925  0.43457770085661435  0.5290157472489984  1.0000
  H   H1415     1.0  0.04818681371173489  0.45900884176705753  0.5495703141902767  1.0000
  H   H1416     1.0  0.010563309251222248  0.4314942837060899  0.6233599931481103  1.0000
  H   H1417     1.0  0.9667568890938584  0.4346241499499415  0.5039499554962826  1.0000
  H   H1418     1.0  0.9605841198570885  0.47190851241607445  0.9947040572166556  1.0000
  H   H1419     1.0  0.9372847967674902  0.47255065014286096  0.5719447672364896  1.0000
  H   H1420     1.0  0.9405413778604425  0.43500935520766265  0.5817204713952955  1.0000
  H   H1421     1.0  0.9845982100121777  0.37869295519258284  0.5419733906352998  1.0000
  H   H1422     1.0  0.986558862622748  0.3553314310436678  0.5050130592011159  1.0000
  H   H1423     1.0  0.9216244327423513  0.35973050505904886  0.9725263171552421  1.0000
  H   H1424     1.0  0.9215828216360104  0.38562320962050534  0.5068211114874384  1.0000
  H   H1425     1.0  0.038856253721468524  0.34257723781120164  0.9439912945377359  1.0000
  H   H1426     1.0  0.9930055687852201  0.3199880512767445  0.9473008838086221  1.0000
  H   H1427     1.0  0.9955358613079939  0.394033308170442  0.9590590435805102  1.0000
  H   H1428     1.0  0.04320429855330093  0.4170826606158921  0.955893012109182  1.0000
  H   H1429     1.0  0.9023580374613361  0.30481425044629296  0.950759850789859  1.0000
  H   H1430     1.0  0.8742868669945801  0.30416109372900585  0.91743504158981  1.0000
  H   H1431     1.0  0.9365800907081431  0.37984832647749606  0.8902618780978384  1.0000
  H   H1432     1.0  0.9675368340417699  0.37702840664852283  0.9209192281844826  1.0000
  H   H1433     1.0  0.9448333367012456  0.2990848913428434  0.9259631508716482  1.0000
  H   H1434     1.0  0.9339269685708013  0.25409404931633905  0.9319304994046177  1.0000
  H   H1435     1.0  0.9330046571182923  0.2648020128822578  0.5142570175104788  1.0000
  H   H1436     1.0  0.9439736144825466  0.3083152345362057  0.5082993688288306  1.0000
  C   C1949     1.0  0.9086607868932818  0.35778304516106024  0.8407383171909312  1.0000
  C   C1950     1.0  0.9087277620469645  0.3777092358155787  0.8271236058761132  1.0000
  C   C1951     1.0  0.9304739468332238  0.3952807477235411  0.8134177159588732  1.0000
  C   C1952     1.0  0.9536232611294927  0.3935376993545132  0.8128725843146066  1.0000
  C   C1953     1.0  0.95308481064917  0.37264499116319655  0.8263010584840524  1.0000
  C   C1954     1.0  0.9306453433065903  0.3551426753234249  0.8401931855466643  1.0000
  H   H1437     1.0  0.891471373569331  0.3801015707194089  0.8285339642582552  1.0000
  H   H1438     1.0  0.9280270950375848  0.4096658744764104  0.802173648307023  1.0000
  H   H1439     1.0  0.969268865230663  0.36895213018253875  0.8256414685941922  1.0000
  H   H1440     1.0  0.931136602271208  0.3389117353384103  0.8493556651049269  1.0000
  C   C1955     1.0  0.010529092175562976  0.428657023505347  0.8346468105610468  1.0000
  C   C1956     1.0  0.007205919292867233  0.4226546237565121  0.8085580904468158  1.0000
  C   C1957     1.0  0.029453854128241228  0.4293329582349564  0.7935097411066842  1.0000
  C   C1958     1.0  0.05458476806764201  0.44174797907333596  0.804084519017353  1.0000
  C   C1959     1.0  0.05777022033711833  0.44725661810511963  0.8299346227890757  1.0000
  C   C1960     1.0  0.03521839003532611  0.4405424118853729  0.8455998826732528  1.0000
  C   C1961     1.0  0.9792853382049505  0.4125644539922477  0.7955544697652503  1.0000
  C   C1962     1.0  0.9828689872148921  0.4403549009490012  0.7863881102664596  1.0000
  C   C1963     1.0  0.9952720336999916  0.452820413238802  0.7630929473328125  1.0000
  C   C1964     1.0  0.9980459197532436  0.4766246422582425  0.7558335786038228  1.0000
  C   C1965     1.0  0.9886070909411456  0.4891015197321506  0.772007110697245  1.0000
  C   C1966     1.0  0.9776683337441598  0.47803677447412013  0.795630128605558  1.0000
  C   C1967     1.0  0.9753483748581625  0.45400373871128236  0.8027304197728755  1.0000
  C   C1968     1.0  0.984233227500065  0.3777054291349645  0.7672095642336452  1.0000
  C   C1969     1.0  0.9811985136773279  0.3648234780510019  0.7442655359178354  1.0000
  C   C1970     1.0  0.9663645958432806  0.3663259606262602  0.7246349768134404  1.0000
  C   C1971     1.0  0.9521124714625945  0.3792280054009158  0.7300727134642576  1.0000
  C   C1972     1.0  0.9544156550010497  0.39144925043755324  0.7532281985388756  1.0000
  C   C1973     1.0  0.9722332049785738  0.3928787698936484  0.7713766203613495  1.0000
  C   C1974     1.0  0.9700087392327691  0.3594388302014769  0.6952327874877946  1.0000
  C   C1975     1.0  0.0494225665279471  0.4278910931350644  0.697541352102305  1.0000
  C   C1976     1.0  0.04631288011414488  0.4030817185213924  0.6948700130483715  1.0000
  C   C1977     1.0  0.021372848498879528  0.38153658382842937  0.690956705031237  1.0000
  C   C1978     1.0  0.9990858323105457  0.38383250385067463  0.6888450473985525  1.0000
  C   C1979     1.0  0.004052902554753275  0.4100418878028122  0.6877165666958125  1.0000
  C   C1980     1.0  0.02840536897857659  0.43122469341872477  0.6933166788577512  1.0000
  C   C1981     1.0  0.945038182721065  0.35519904245591344  0.679783252297007  1.0000
  C   C1982     1.0  0.9193503245298987  0.33552239791170135  0.6876956150169581  1.0000
  C   C1983     1.0  0.8976305468902971  0.3332181127594986  0.6749645601575259  1.0000
  C   C1984     1.0  0.90055499105996  0.35131217107274276  0.656237445205213  1.0000
  C   C1985     1.0  0.9259737086718723  0.3709088291636393  0.6496423222947179  1.0000
  C   C1986     1.0  0.9475826517073811  0.37142865991154084  0.6598110644290696  1.0000
  C   C1987     1.0  0.970624516449697  0.32351243445313016  0.6645674835230668  1.0000
  C   C1988     1.0  0.9620058879651238  0.2972798221021549  0.6579948642676374  1.0000
  C   C1989     1.0  0.9522163889075461  0.2783731819144836  0.6770360604057395  1.0000
  C   C1990     1.0  0.9508842057950526  0.2854923680741063  0.7018403262079813  1.0000
  C   C1991     1.0  0.9575368825275717  0.3107592880446522  0.7079686922728873  1.0000
  C   C1992     1.0  0.967567115148998  0.33091757041827263  0.6897448056071321  1.0000
  H   H1441     1.0  0.993246483921704  0.4237404033944622  0.8468977227800657  1.0000
  H   H1442     1.0  0.028544025255541217  0.42649964768887233  0.7722379671586962  1.0000
  H   H1443     1.0  0.0723909211549106  0.44925293765595087  0.7924369375505295  1.0000
  H   H1444     1.0  0.038365684397348804  0.4461165589634288  0.8659307710430583  1.0000
  H   H1445     1.0  0.0013255359539509654  0.4433207644836467  0.7493773575642512  1.0000
  H   H1446     1.0  0.007134779150658675  0.4858668665628337  0.7371865844234252  1.0000
  H   H1447     1.0  0.9711293318548468  0.48824821259687085  0.8081254770778781  1.0000
  H   H1448     1.0  0.9685883723252309  0.4468166666174777  0.8222232409885053  1.0000
  H   H1449     1.0  0.9976142466817011  0.37756068807862925  0.7806690779273197  1.0000
  H   H1450     1.0  0.9933030706309506  0.356206138067634  0.7402323377383672  1.0000
  H   H1451     1.0  0.9412271825927915  0.3826781255404786  0.714977804837783  1.0000
  H   H1452     1.0  0.944687171338952  0.4029871989508833  0.7556007821721074  1.0000
  H   H1453     1.0  0.06328501128548827  0.40090418751941703  0.6979972451144141  1.0000
  H   H1454     1.0  0.018567488903061535  0.3620026263444569  0.6916634361985194  1.0000
  H   H1455     1.0  0.9878809745647752  0.4142093196831735  0.6871330236403127  1.0000
  H   H1456     1.0  0.031320772848092614  0.45118329751643305  0.6945072386089486  1.0000
  H   H1457     1.0  0.9162710926500954  0.32207702619154993  0.7037531368885755  1.0000
  H   H1458     1.0  0.8780952712489465  0.317661098121448  0.6810291012007369  1.0000
  H   H1459     1.0  0.9288447490471405  0.3854789679212145  0.6347930139037029  1.0000
  H   H1460     1.0  0.9663022491131367  0.38673040225030053  0.6518866738934799  1.0000
  H   H1461     1.0  0.977673200513529  0.3376621647674074  0.6489897162978092  1.0000
  H   H1462     1.0  0.9616351500017514  0.29224561835387086  0.6378026837717291  1.0000
  H   H1463     1.0  0.9429960806363944  0.27045624755774345  0.7171175920392997  1.0000
  H   H1464     1.0  0.9537794057906647  0.3143152764159895  0.7277331093255187  1.0000
  C   C1993     1.0  0.9012935776277428  0.6154178865175266  0.969216727884356  1.0000
  C   C1994     1.0  0.8983154356898495  0.5978433235780051  0.9888647467211292  1.0000
  C   C1995     1.0  0.9200236465141055  0.6008738757915525  0.5020837041020315  1.0000
  C   C1996     1.0  0.9451921738066933  0.6218232265995952  0.9952608286825081  1.0000
  C   C1997     1.0  0.9473584857945683  0.640682692172086  0.9778767551441659  1.0000
  C   C1998     1.0  0.9260335216124226  0.6377467312913592  0.9650089323811011  1.0000
  H   H1465     1.0  0.8787743539819696  0.5805282654482966  0.9928378058224043  1.0000
  H   H1466     1.0  0.9180819184477762  0.5872919185931751  0.5172038323419419  1.0000
  H   H1467     1.0  0.9664086113806611  0.6582639301988349  0.9729763902565582  1.0000
  H   H1468     1.0  0.9296424010295271  0.6520354685765757  0.9496113883933966  1.0000
  C   C1999     1.0  0.9967691488657195  0.6318016536166836  0.9646422780011495  1.0000
  C   C2000     1.0  0.9982365534270371  0.6377679185436282  0.9908066569556881  1.0000
  C   C2001     1.0  0.023121112969642945  0.6527180130497691  0.5011816179291345  1.0000
  C   C2002     1.0  0.04590871770754337  0.6613065298579046  0.986792858478863  1.0000
  C   C2003     1.0  0.044120299939163825  0.6548850884937745  0.960795316967054  1.0000
  C   C2004     1.0  0.019618022818988667  0.6398575834647557  0.9496851072634398  1.0000
  C   C2005     1.0  0.9716856824825931  0.6257473789662127  0.5083963673420454  1.0000
  C   C2006     1.0  0.9699769665146212  0.5981820161268256  0.5157682543463641  1.0000
  C   C2007     1.0  0.9825806804555489  0.5948952778345937  0.5370809796257758  1.0000
  C   C2008     1.0  0.9815785684846682  0.5713775023074752  0.5420618532793516  1.0000
  C   C2009     1.0  0.9701735118435906  0.5506087806536422  0.5242034570113897  1.0000
  C   C2010     1.0  0.9598642643593893  0.5541773658321505  0.5020526645778027  1.0000
  C   C2011     1.0  0.9593420065197026  0.577088609028755  0.9978021897287337  1.0000
  C   C2012     1.0  0.9830523288614292  0.670233760127251  0.5279247079723592  1.0000
  C   C2013     1.0  0.9791589527169662  0.6850410819786428  0.5461555785310658  1.0000
  C   C2014     1.0  0.9676145903112485  0.6750068629383484  0.5699025605392669  1.0000
  C   C2015     1.0  0.961194507447694  0.649467633686019  0.5759707875259799  1.0000
  C   C2016     1.0  0.9622536570101985  0.6332926885415754  0.5570246499308279  1.0000
  C   C2017     1.0  0.9736592438854995  0.6434116005982375  0.5323592859995097  1.0000
  C   C2018     1.0  0.9650130745964407  0.6946463896988456  0.5898078194330859  1.0000
  C   C2019     1.0  0.05030671787367332  0.7463564695042437  0.5990246181587486  1.0000
  C   C2020     1.0  0.03628520621828324  0.754377899332706  0.5836319240967047  1.0000
  C   C2021     1.0  0.00909149725112929  0.7385694681327073  0.582266379027668  1.0000
  C   C2022     1.0  0.9952652445282096  0.7147867773997175  0.595261269843044  1.0000
  C   C2023     1.0  0.009461466852144218  0.707356641047614  0.6109474814060755  1.0000
  C   C2024     1.0  0.03633397051266913  0.7231342365114926  0.6132257824844628  1.0000
  C   C2025     1.0  0.9479933124365009  0.6814433205722639  0.6155217372922552  1.0000
  C   C2026     1.0  0.9229330150898285  0.6585744373589043  0.6146324549231027  1.0000
  C   C2027     1.0  0.9077572189921664  0.6476918657381913  0.6367847813740537  1.0000
  C   C2028     1.0  0.916096735922357  0.6594882551729937  0.6606023782998754  1.0000
  C   C2029     1.0  0.9403537243922724  0.6831279023606172  0.6617832381997515  1.0000
  C   C2030     1.0  0.9561737150300457  0.6934972877576255  0.6398547843172998  1.0000
  C   C2031     1.0  0.9505294150973141  0.7301220810419459  0.5874424136898319  1.0000
  C   C2032     1.0  0.933130519286964  0.7382498695215163  0.5811916355012489  1.0000
  C   C2033     1.0  0.9133848428663172  0.7245830740926762  0.562982298612476  1.0000
  C   C2034     1.0  0.9117189813262168  0.7020513471200681  0.5520660859352914  1.0000
  C   C2035     1.0  0.9284455524964713  0.6929258821296332  0.5591444554386223  1.0000
  C   C2036     1.0  0.9480788073193803  0.707049428020162  0.5773182908715587  1.0000
  H   H1469     1.0  0.9777195192170889  0.6199984630001891  0.9554215993349585  1.0000
  H   H1470     1.0  0.024637942060389523  0.6569277847943497  0.521652184157969  1.0000
  H   H1471     1.0  0.0647522767443249  0.672652832877042  0.9954684055007875  1.0000
  H   H1472     1.0  0.018647411544626152  0.6349751537949688  0.9294221178528849  1.0000
  H   H1473     1.0  0.99388001417467  0.6110872391691539  0.5500828543341033  1.0000
  H   H1474     1.0  0.9918784236010233  0.5694117187081256  0.5587880829010715  1.0000
  H   H1475     1.0  0.9528710696518943  0.5387689206197148  0.9872254718478005  1.0000
  H   H1476     1.0  0.9500794375453119  0.5790060744890797  0.9805965934547065  1.0000
  H   H1477     1.0  0.990569345290762  0.6788736405777119  0.5093799322660427  1.0000
  H   H1478     1.0  0.9859968292673895  0.7057238893709458  0.5416207040412512  1.0000
  H   H1479     1.0  0.9521992844964531  0.640209930999362  0.5944695679781854  1.0000
  H   H1480     1.0  0.953542831022401  0.612562274056083  0.5621048500619356  1.0000
  H   H1481     1.0  0.046716388204616835  0.7722534204845711  0.5727578087742554  1.0000
  H   H1482     1.0  0.999130810883019  0.7449650834863706  0.570199375989704  1.0000
  H   H1483     1.0  0.9993390038136456  0.688326970739116  0.6204480977814044  1.0000
  H   H1484     1.0  0.047924118727314544  0.7163664061494736  0.6250826867428038  1.0000
  H   H1485     1.0  0.9142736434559754  0.6485603737660136  0.5965368002918174  1.0000
  H   H1486     1.0  0.8878574443649538  0.6297343964334374  0.6346252064758412  1.0000
  H   H1487     1.0  0.948422584159987  0.6938831312825672  0.6800728898574661  1.0000
  H   H1488     1.0  0.9744419446541328  0.7120743004177275  0.6434507131991959  1.0000
  H   H1489     1.0  0.9651261389780897  0.7409738350245338  0.6023609790192821  1.0000
  H   H1490     1.0  0.9353488825494437  0.7556742508468302  0.5904216260247087  1.0000
  H   H1491     1.0  0.897016179235262  0.6909545486432095  0.5377011881192708  1.0000
  H   H1492     1.0  0.9252560302234575  0.6746672158211384  0.5501561852100936  1.0000
  C   C2037     1.0  0.9305724860467912  0.6474616531129069  0.7199926279709841  1.0000
  C   C2038     1.0  0.9217533369541935  0.6217072578433926  0.727248116759445  1.0000
  C   C2039     1.0  0.9389313568844609  0.6145751327333251  0.7364183561987646  1.0000
  C   C2040     1.0  0.9660180395215137  0.6333182270549581  0.7385872429542458  1.0000
  C   C2041     1.0  0.9748918986338027  0.6592845472531202  0.7305344263871596  1.0000
  C   C2042     1.0  0.9574794298568797  0.6660770029870688  0.7203301827969711  1.0000
  H   H1493     1.0  0.9007615376525945  0.6063979335980075  0.7269435414279508  1.0000
  H   H1494     1.0  0.9301919748203359  0.5939209816404508  0.7432160120048519  1.0000
  H   H1495     1.0  0.9951831285523155  0.6748574085295863  0.7338556554796317  1.0000
  H   H1496     1.0  0.9648295419275659  0.6869140928323664  0.7155636758575998  1.0000
  C   C2043     1.0  0.02333193326066924  0.6467688178733533  0.724638856753969  1.0000
  C   C2044     1.0  0.014426114343850814  0.6413762375436636  0.7497905712305458  1.0000
  C   C2045     1.0  0.03410343531820036  0.6479113033642604  0.7683172872545572  1.0000
  C   C2046     1.0  0.060591672717178316  0.6603965755959035  0.7619134454121215  1.0000
  C   C2047     1.0  0.06898478798685441  0.667020972365414  0.736296138072114  1.0000
  C   C2048     1.0  0.0499287563490903  0.6600857171696456  0.7175773649919375  1.0000
  C   C2049     1.0  0.9838442390630713  0.6265680325249214  0.75677640415227  1.0000
  C   C2050     1.0  0.9774815176205252  0.5965338063311484  0.7573622751720869  1.0000
  C   C2051     1.0  0.9829560858982923  0.5867488599359941  0.7792334999317418  1.0000
  C   C2052     1.0  0.9803625481725318  0.5622164260101598  0.7791287415374699  1.0000
  C   C2053     1.0  0.9730273571108524  0.5469674026103517  0.7574747934474156  1.0000
  C   C2054     1.0  0.9674347077282238  0.5563422452294429  0.7353940518992171  1.0000
  C   C2055     1.0  0.9694621100758798  0.5810866252013671  0.7353183930589096  1.0000
  C   C2056     1.0  0.992683659894174  0.6644260321114513  0.7901322528765478  1.0000
  C   C2057     1.0  0.9888616707806988  0.6725035182278748  0.8139512077815543  1.0000
  C   C2058     1.0  0.9716791577288071  0.6551020452649139  0.8318513134101985  1.0000
  C   C2059     1.0  0.9554589987452793  0.6285481504642009  0.8241069521151354  1.0000
  C   C2060     1.0  0.9586937332645947  0.620143510235815  0.8003287365856788  1.0000
  C   C2061     1.0  0.978141341838024  0.6374880790441455  0.783386976267596  1.0000
  C   C2062     1.0  0.9750097657684015  0.6637073127203866  0.8614824192270312  1.0000
  C   C2063     1.0  0.055849044000973284  0.6777759955564158  0.8612709624682231  1.0000
  C   C2064     1.0  0.051568165820515044  0.6984939950598242  0.8656843948194928  1.0000
  C   C2065     1.0  0.026025539011656825  0.6935656299657117  0.8691375418899367  1.0000
  C   C2066     1.0  0.004164948163354634  0.6681437687972264  0.8671878717743207  1.0000
  C   C2067     1.0  0.009276400175812492  0.6470660267639735  0.8642759764076149  1.0000
  C   C2068     1.0  0.03496205671223016  0.6517714481839324  0.8619480120904617  1.0000
  C   C2069     1.0  0.9496550256848861  0.6416217149096863  0.8775453730153885  1.0000
  C   C2070     1.0  0.9240068261338275  0.6364331839286874  0.8713161284967393  1.0000
  C   C2071     1.0  0.9027673389495885  0.6196608769860404  0.8870201877862024  1.0000
  C   C2072     1.0  0.9056272573967156  0.6064067168619787  0.9075101537176798  1.0000
  C   C2073     1.0  0.9303565073804502  0.6099202712744828  0.9118615070204922  1.0000
  C   C2074     1.0  0.9522723568104164  0.6279525881243105  0.8980993579655877  1.0000
  C   C2075     1.0  0.978182888057336  0.7009765655781155  0.8918778733279954  1.0000
  C   C2076     1.0  0.9721441292080346  0.7203484476970751  0.8982041163598595  1.0000
  C   C2077     1.0  0.961075436425443  0.7289202923221973  0.8809228612455252  1.0000
  C   C2078     1.0  0.9562015431210464  0.7186186686828305  0.8560990017436142  1.0000
  C   C2079     1.0  0.9616596033060414  0.699198567071359  0.8492625465322406  1.0000
  C   C2080     1.0  0.9724652756152462  0.6895465094698746  0.866991934777627  1.0000
  H   H1497     1.0  0.008328950162583684  0.6407628002395831  0.710281136827926  1.0000
  H   H1498     1.0  0.028660134565508054  0.6437204313032119  0.7887005548214985  1.0000
  H   H1499     1.0  0.07481568030449029  0.6650378952786701  0.7765117216509367  1.0000
  H   H1500     1.0  0.05571391732958952  0.6636078263381548  0.6974307737972402  1.0000
  H   H1501     1.0  0.9908217563678106  0.5989733049045881  0.7964002968004829  1.0000
  H   H1502     1.0  0.9859483460313837  0.5556751026401299  0.7956049089921222  1.0000
  H   H1503     1.0  0.962262914783035  0.5448857046574064  0.71754244552718  1.0000
  H   H1504     1.0  0.9649668110868196  0.5881276466917963  0.7172242904038358  1.0000
  H   H1505     1.0  0.006605082113000822  0.678253574901753  0.7767833174879379  1.0000
  H   H1506     1.0  0.0019890804501770864  0.6934262718185197  0.818562517099782  1.0000
  H   H1507     1.0  0.940118907011089  0.6130430538644733  0.8357603534927516  1.0000
  H   H1508     1.0  0.9463761794871163  0.5994405212726189  0.7949627788346405  1.0000
  H   H1509     1.0  0.06708082863441248  0.7186142243310327  0.8662178866421737  1.0000
  H   H1510     1.0  0.023537018144989173  0.7109244282837371  0.8701928857137128  1.0000
  H   H1511     1.0  0.9929101033727993  0.6263030924019675  0.8620663502765837  1.0000
  H   H1512     1.0  0.03841975775196109  0.6355453395988736  0.8583765268338955  1.0000
  H   H1513     1.0  0.9201476622537236  0.6457506932262018  0.8546925233020007  1.0000
  H   H1514     1.0  0.8830166551822805  0.6164690156937659  0.8824651376056392  1.0000
  H   H1515     1.0  0.9330529739630267  0.6002598167921057  0.9284754123639091  1.0000
  H   H1516     1.0  0.9711739886851253  0.630842398972641  0.9029512235965881  1.0000
  H   H1517     1.0  0.985869734222619  0.693330410684395  0.9071473792782567  1.0000
  H   H1518     1.0  0.9759303181047158  0.7285016900921574  0.9176639580809967  1.0000
  H   H1519     1.0  0.9482043003219645  0.7254641284128626  0.8405443201645018  1.0000
  H   H1520     1.0  0.9539767195875875  0.6907088207440971  0.8296494471602245  1.0000
  C   C2081     1.0  0.2732276168561914  0.7812397054658007  0.717067152812428  1.0000
  C   C2082     1.0  0.2794947291574101  0.7653680120577069  0.7018131666242813  1.0000
  C   C2083     1.0  0.2598887351139969  0.7445942365690935  0.6880290959053901  1.0000
  C   C2084     1.0  0.23390764946371373  0.7398767452988956  0.6878960139452597  1.0000
  C   C2085     1.0  0.22918034112155963  0.7568257028118452  0.7030004284260293  1.0000
  C   C2086     1.0  0.24832455712468213  0.7770146720109573  0.7169565745073633  1.0000
  H   H1521     1.0  0.2987935964540096  0.7669838099251245  0.7028665704777931  1.0000
  H   H1522     1.0  0.2647218150369449  0.7318986958727922  0.6766304126234757  1.0000
  H   H1523     1.0  0.20962510134587212  0.7530665779528652  0.7037317972156685  1.0000
  H   H1524     1.0  0.2427848475438479  0.7895486569509539  0.7271200787220016  1.0000
  C   C2087     1.0  0.1812972035967544  0.6957197217307064  0.7112259023466376  1.0000
  C   C2088     1.0  0.1830756781704404  0.699818471538107  0.6847313404531162  1.0000
  C   C2089     1.0  0.15955700168238787  0.6876706852382594  0.6710289424823521  1.0000
  C   C2090     1.0  0.13516209956714556  0.6742907329142172  0.6834655098556641  1.0000
  C   C2091     1.0  0.13320991554583778  0.6708186755657161  0.7097845044402669  1.0000
  C   C2092     1.0  0.15691881251508674  0.6823854631297466  0.7237154309081649  1.0000
  C   C2093     1.0  0.21069008452007404  0.7186617912512927  0.669901819758797  1.0000
  C   C2094     1.0  0.2156088652059669  0.6969048832838862  0.657385713604649  1.0000
  C   C2095     1.0  0.20895243605055178  0.6891458174881644  0.6318923703645298  1.0000
  C   C2096     1.0  0.20965071216947656  0.6679888902570033  0.6213179804479139  1.0000
  C   C2097     1.0  0.21828420944457522  0.6540734239089084  0.6359719338333145  1.0000
  C   C2098     1.0  0.2255600353988149  0.6620402410560028  0.6613494608486552  1.0000
  C   C2099     1.0  0.2233451929517308  0.6824369112365084  0.6720879722496303  1.0000
  C   C2100     1.0  0.19100061911883964  0.7473737808079707  0.6531618163482008  1.0000
  C   C2101     1.0  0.1906664474775995  0.7660375778848935  0.6377270249314217  1.0000
  C   C2102     1.0  0.20865705828174413  0.7777224783236142  0.6178431057105099  1.0000
  C   C2103     1.0  0.22932255200061635  0.771698046929436  0.6161017884012793  1.0000
  C   C2104     1.0  0.2295412203896223  0.7529076600964163  0.6318382451941561  1.0000
  C   C2105     1.0  0.20986876740313273  0.7397533505448586  0.64978782006454  1.0000
  C   C2106     1.0  0.2076033833760964  0.7986591155361139  0.5987842558430025  1.0000
  C   C2107     1.0  0.1226911683111571  0.7680808287707719  0.5799428766421225  1.0000
  C   C2108     1.0  0.14046071704858942  0.795457143946797  0.5818027261345016  1.0000
  C   C2109     1.0  0.1672798016778879  0.8052637361065795  0.5862093685898463  1.0000
  C   C2110     1.0  0.1766453857134646  0.7881532217655154  0.591069576092983  1.0000
  C   C2111     1.0  0.15858565280634376  0.760769554493053  0.5877675527061275  1.0000
  C   C2112     1.0  0.13242583241291256  0.7511444243275528  0.5814892269397917  1.0000
  C   C2113     1.0  0.2243940026798213  0.8007095887478934  0.573035030525023  1.0000
  C   C2114     1.0  0.2514471812148672  0.8200861100764423  0.5704284864779171  1.0000
  C   C2115     1.0  0.26686814875130804  0.8195593388880229  0.5505831726652648  1.0000
  C   C2116     1.0  0.25555691507745454  0.7995842519212716  0.5321001059721999  1.0000
  C   C2117     1.0  0.22912991511554354  0.779960265800137  0.5347700870469484  1.0000
  C   C2118     1.0  0.2138189205826868  0.7806196113694507  0.5543129594953972  1.0000
  C   C2119     1.0  0.22715287574250873  0.8503838445428517  0.6003028645658922  1.0000
  C   C2120     1.0  0.2354859301862573  0.8740303521834669  0.6124323346463664  1.0000
  C   C2121     1.0  0.23720748859549642  0.8759467366159277  0.6385872077466098  1.0000
  C   C2122     1.0  0.23065692196830706  0.8533981449346437  0.6528968164100981  1.0000
  C   C2123     1.0  0.22256497640654663  0.8297907333957916  0.6403892461251128  1.0000
  C   C2124     1.0  0.2194117777712661  0.8272055326915968  0.6138642266984421  1.0000
  H   H1525     1.0  0.19911588539340278  0.704095247419438  0.7229084032782184  1.0000
  H   H1526     1.0  0.15933769358283434  0.6891948224832045  0.6502388631509883  1.0000
  H   H1527     1.0  0.11703828131484172  0.6677017095842319  0.6724579245790313  1.0000
  H   H1528     1.0  0.15671560687594616  0.6810755954439475  0.7448455870268594  1.0000
  H   H1529     1.0  0.20069663043129315  0.6977812683052659  0.6190392913754739  1.0000
  H   H1530     1.0  0.20149027355736274  0.6622077096980122  0.6021254666291966  1.0000
  H   H1531     1.0  0.2313475041512828  0.6512106658470393  0.6744126386173344  1.0000
  H   H1532     1.0  0.2272594831023821  0.686541660462133  0.6929750500942088  1.0000
  H   H1533     1.0  0.17523273872463996  0.7389957185602773  0.6678365274154292  1.0000
  H   H1534     1.0  0.1762108062756906  0.7717840903076341  0.6403252271063911  1.0000
  H   H1535     1.0  0.2461326916295718  0.7821473714022715  0.6034706420104585  1.0000
  H   H1536     1.0  0.24533941897051267  0.7490165110282807  0.6289589413278903  1.0000
  H   H1537     1.0  0.13314017619173524  0.8095469460315003  0.5805991685825334  1.0000
  H   H1538     1.0  0.18014879651778723  0.8264247409990908  0.5861560194075782  1.0000
  H   H1539     1.0  0.16576644175081942  0.7472374473561402  0.5891707331982916  1.0000
  H   H1540     1.0  0.11973000150281231  0.7297693427331177  0.5786481404877325  1.0000
  H   H1541     1.0  0.2621124179544679  0.8342584902011648  0.5864262572653944  1.0000
  H   H1542     1.0  0.28735493273714885  0.8342584832706993  0.5502646295478677  1.0000
  H   H1543     1.0  0.22059145161393262  0.7634765140045979  0.5220324183297708  1.0000
  H   H1544     1.0  0.19351860454726588  0.7647633454291761  0.5548109498622416  1.0000
  H   H1545     1.0  0.22636762980434255  0.8497950388213779  0.5792790188176811  1.0000
  H   H1546     1.0  0.23857065436900796  0.8905606331527347  0.6013261988803075  1.0000
  H   H1547     1.0  0.23079798531355447  0.854410986685348  0.673514820379019  1.0000
  H   H1548     1.0  0.21885743963739313  0.8139030594912265  0.6532021677296981  1.0000
  C   C2125     1.0  0.24916944840832952  0.7801434861591334  0.9681846637037511  1.0000
  C   C2126     1.0  0.25839911902825385  0.7665936386116756  0.9539355821125087  1.0000
  C   C2127     1.0  0.24079247707751858  0.7432741709260514  0.9418010681093474  1.0000
  C   C2128     1.0  0.213357341330513  0.7331541133384818  0.9437546181654918  1.0000
  C   C2129     1.0  0.20450310167240607  0.7472176993051705  0.9582306762776566  1.0000
  C   C2130     1.0  0.22243221501068922  0.7706886872949787  0.9697502197070366  1.0000
  H   H1549     1.0  0.2791235150806374  0.7730716766918069  0.9535068486840996  1.0000
  H   H1550     1.0  0.24879136834793486  0.7336778574464787  0.9296296946711645  1.0000
  H   H1551     1.0  0.18347352344483184  0.7408688710541506  0.958785507773245  1.0000
  H   H1552     1.0  0.2136841360321691  0.7807596882896803  0.980018482315947  1.0000
  C   C2131     1.0  0.15592320402646076  0.6861290873160794  0.9572839707886808  1.0000
  C   C2132     1.0  0.16351789658746047  0.692310749656761  0.9316841231810521  1.0000
  C   C2133     1.0  0.1445797262932069  0.6805664407866626  0.9127810529257676  1.0000
  C   C2134     1.0  0.11810824683499554  0.6648151975975335  0.9190975961063104  1.0000
  C   C2135     1.0  0.11054997423307743  0.6598773929380117  0.9448313016621752  1.0000
  C   C2136     1.0  0.1297279848694903  0.6704416065250328  0.9642387641861763  1.0000
  C   C2137     1.0  0.19470735888017426  0.7102985772708795  0.9243510355820195  1.0000
  C   C2138     1.0  0.20280431051653702  0.6881850446775466  0.9204672151129019  1.0000
  C   C2139     1.0  0.2009244179475793  0.6761232154815431  0.8967219790779387  1.0000
  C   C2140     1.0  0.20715693716626232  0.6567951653031555  0.8935249080823816  1.0000
  C   C2141     1.0  0.21427848458383092  0.6478231860622069  0.9149615795028345  1.0000
  C   C2142     1.0  0.21606218873178415  0.6594534757969093  0.9389648315829492  1.0000
  C   C2143     1.0  0.21005163746395972  0.6790502918223446  0.9416730300719038  1.0000
  C   C2144     1.0  0.18428533502311803  0.7417305033906562  0.898240975794881  1.0000
  C   C2145     1.0  0.1881160193334594  0.7589328953947418  0.8789925908325523  1.0000
  C   C2146     1.0  0.2056762320285808  0.76284729219779  0.8590147770508485  1.0000
  C   C2147     1.0  0.2211841839576751  0.7511733378859181  0.8611351645497224  1.0000
  C   C2148     1.0  0.21832883510698828  0.7352075768839317  0.8815300719382493  1.0000
  C   C2149     1.0  0.19883739050490334  0.729381590595999  0.9000412682001462  1.0000
  C   C2150     1.0  0.20465952068055013  0.7766799393721088  0.8328465181557815  1.0000
  C   C2151     1.0  0.12222406008418388  0.712432121444147  0.8239924938695421  1.0000
  C   C2152     1.0  0.1280343247508439  0.7382427560584773  0.8234687018981826  1.0000
  C   C2153     1.0  0.15381262668766324  0.7584829036811211  0.8245395654840729  1.0000
  C   C2154     1.0  0.175224754338521  0.7536954159798774  0.8238469960997199  1.0000
  C   C2155     1.0  0.16818849748511921  0.7269883221623129  0.8209835999896214  1.0000
  C   C2156     1.0  0.14227082400951932  0.7068764600615743  0.8234454222550109  1.0000
  C   C2157     1.0  0.22837447409064254  0.7812638026452927  0.8130355418168073  1.0000
  C   C2158     1.0  0.25460336417084717  0.8017435265112066  0.8183801598949382  1.0000
  C   C2159     1.0  0.27503392864167775  0.8048498961164859  0.8022803466715591  1.0000
  C   C2160     1.0  0.27041393914889866  0.7881565704668267  0.7814411860925087  1.0000
  C   C2161     1.0  0.2450532415925311  0.7674942330870046  0.7777048033634777  1.0000
  C   C2162     1.0  0.22452554864352944  0.7643955989038101  0.7926328745472232  1.0000
  C   C2163     1.0  0.20434940896218856  0.818827670980113  0.81553034357669  1.0000
  C   C2164     1.0  0.20400177891424426  0.8421253899181613  0.8182540618277593  1.0000
  C   C2165     1.0  0.2080711054455152  0.8536677616323974  0.8423135730455382  1.0000
  C   C2166     1.0  0.214369877999383  0.8430661713911816  0.8632749517512391  1.0000
  C   C2167     1.0  0.2145253475705061  0.8196611870522846  0.8597985250376236  1.0000
  C   C2168     1.0  0.20750618898080475  0.8058056666639923  0.8363792040070617  1.0000
  H   H1553     1.0  0.170572080970233  0.6946909740775775  0.9724215587609701  1.0000
  H   H1554     1.0  0.1500114021992483  0.6830352274515975  0.8927799595008926  1.0000
  H   H1555     1.0  0.10404403761373364  0.6547836046124785  0.9039891076879856  1.0000
  H   H1556     1.0  0.12354257883896046  0.6675668716923984  0.9839779616253719  1.0000
  H   H1557     1.0  0.19270511606786755  0.6809708044161974  0.8804921878468518  1.0000
  H   H1558     1.0  0.20512523875703628  0.6477810117503101  0.8745267792841467  1.0000
  H   H1559     1.0  0.22126570811452792  0.6514227290768386  0.9554002596620511  1.0000
  H   H1560     1.0  0.2102101426556851  0.6866345084304953  0.9607351778888606  1.0000
  H   H1561     1.0  0.16911273814575872  0.7387395167627786  0.9131787468299479  1.0000
  H   H1562     1.0  0.1753077935924807  0.7677216662167616  0.878055585194898  1.0000
  H   H1563     1.0  0.23714198818759158  0.7553596413954095  0.8477920490719056  1.0000
  H   H1564     1.0  0.23156839207335406  0.7279241656859592  0.8831363673170851  1.0000
  H   H1565     1.0  0.11175094484309636  0.7423323022451827  0.8241690311635929  1.0000
  H   H1566     1.0  0.1566328186632556  0.7779553913752458  0.8268423101877903  1.0000
  H   H1567     1.0  0.18319229494944259  0.7215481046045757  0.8205024873640764  1.0000
  H   H1568     1.0  0.13743553714705495  0.6867672793623889  0.8238217764862841  1.0000
  H   H1569     1.0  0.2593858135632322  0.8156605965607775  0.8344004343374815  1.0000
  H   H1570     1.0  0.2953492817312355  0.8199139017820153  0.8069653748598301  1.0000
  H   H1571     1.0  0.24076933564125366  0.7531472230610069  0.7626894335178392  1.0000
  H   H1572     1.0  0.2053294927601948  0.7487306688922045  0.7875482124845076  1.0000
  H   H1573     1.0  0.1988830016943626  0.8080686475332634  0.7971801648467292  1.0000
  H   H1574     1.0  0.19853928862469383  0.8498244608710959  0.8020262105669366  1.0000
  H   H1575     1.0  0.21930319825295266  0.8520007739779358  0.8822071215604879  1.0000
  H   H1576     1.0  0.21959626019730938  0.8117426901970861  0.876051595911882  1.0000
  C   C2169     1.0  0.24022931354081772  0.48306271018800556  0.5926956591685145  1.0000
  C   C2170     1.0  0.24805342208460862  0.509670986406354  0.5971529348477574  1.0000
  C   C2171     1.0  0.23037488404056974  0.5158799426208159  0.6079116219394812  1.0000
  C   C2172     1.0  0.2034694194438391  0.49588843633608726  0.6126445673932802  1.0000
  C   C2173     1.0  0.1959080804416004  0.4701635311785143  0.6044437310950286  1.0000
  C   C2174     1.0  0.21410167664193358  0.46372875441013717  0.5957097909681488  1.0000
  H   H1577     1.0  0.2684315439026106  0.5251626412548925  0.5959377374742033  1.0000
  H   H1578     1.0  0.2377224433601496  0.5360761965861213  0.6146018033929268  1.0000
  H   H1579     1.0  0.17577335451666048  0.4545275876914177  0.605883189031135  1.0000
  H   H1580     1.0  0.2081701348517684  0.4426829127508464  0.5915522406947394  1.0000
  C   C2175     1.0  0.14485503766941246  0.4771975186214098  0.5954077375979981  1.0000
  C   C2176     1.0  0.1527663628484879  0.48424964113705443  0.620606011360918  1.0000
  C   C2177     1.0  0.13268320002733827  0.4768466938182656  0.6396373136506724  1.0000
  C   C2178     1.0  0.10653489036630677  0.4614852207157225  0.6331925384356599  1.0000
  C   C2179     1.0  0.09923903964029882  0.45400624108229615  0.6080351980453168  1.0000
  C   C2180     1.0  0.1187499419113432  0.46112821504058815  0.5889453086535806  1.0000
  C   C2181     1.0  0.18324735282512616  0.5010806102109998  0.628957971342758  1.0000
  C   C2182     1.0  0.18678030360866207  0.5303763884847477  0.6267048898778066  1.0000
  C   C2183     1.0  0.17942798977646365  0.5412428213159348  0.6470097826460703  1.0000
  C   C2184     1.0  0.1790547164314501  0.5645434529554751  0.6444581397574438  1.0000
  C   C2185     1.0  0.18697860110167935  0.577938218775618  0.6211544409546339  1.0000
  C   C2186     1.0  0.19383927655905017  0.5678382584154994  0.6006124838200736  1.0000
  C   C2187     1.0  0.1935893988129374  0.5440638636376927  0.6035311690827044  1.0000
  C   C2188     1.0  0.1749654539852915  0.4665168861069529  0.6647781642937692  1.0000
  C   C2189     1.0  0.17715244210773895  0.4593136223357632  0.6893339199051547  1.0000
  C   C2190     1.0  0.19404012794226264  0.4782287407617725  0.7069230483004326  1.0000
  C   C2191     1.0  0.20950122354027004  0.5044008957694515  0.6974831529943761  1.0000
  C   C2192     1.0  0.20790263502693535  0.5114243508915315  0.6724115592897147  1.0000
  C   C2193     1.0  0.18924288888671315  0.4928600695107631  0.656105527227241  1.0000
  C   C2194     1.0  0.19095487282138546  0.47151743247606714  0.7372700031447899  1.0000
  C   C2195     1.0  0.10999349150291893  0.459326416807647  0.7408259686392414  1.0000
  C   C2196     1.0  0.11384454534298068  0.43824656677868573  0.7435613267118965  1.0000
  C   C2197     1.0  0.13927981801259556  0.44244037793035573  0.7434585082878887  1.0000
  C   C2198     1.0  0.16235759226114185  0.4682174859846435  0.7428183181006716  1.0000
  C   C2199     1.0  0.15741407096118093  0.48896808488771176  0.7407794093528984  1.0000
  C   C2200     1.0  0.13168354059322693  0.48470101512223623  0.7407192702747053  1.0000
  C   C2201     1.0  0.21684104472106921  0.49330418486720923  0.7523008927525426  1.0000
  C   C2202     1.0  0.24201613985689427  0.4992635047255862  0.7444731127361149  1.0000
  C   C2203     1.0  0.264154814308654  0.5192132278136334  0.7559228172359803  1.0000
  C   C2204     1.0  0.26218061670940074  0.5329173431562357  0.7761799867357424  1.0000
  C   C2205     1.0  0.23752494709313524  0.5271231471031563  0.7847507753633951  1.0000
  C   C2206     1.0  0.21514731841409857  0.5078994410014318  0.7726201413007622  1.0000
  C   C2207     1.0  0.18368954450770794  0.4353239924513996  0.7707771695496826  1.0000
  C   C2208     1.0  0.18182115321965883  0.41166788133884263  0.7778619409548857  1.0000
  C   C2209     1.0  0.18790947100318536  0.39774837543406105  0.7601092730663277  1.0000
  C   C2210     1.0  0.1951795215422865  0.4079727033781144  0.7355279098474534  1.0000
  C   C2211     1.0  0.19892135908895456  0.43223714424272286  0.7290212495810099  1.0000
  C   C2212     1.0  0.19106602216712723  0.4455103813506425  0.7455885956380841  1.0000
  H   H1581     1.0  0.159662877430869  0.48396440022449966  0.5801064161354026  1.0000
  H   H1582     1.0  0.13706417663003254  0.4825320844426743  0.6601005079925025  1.0000
  H   H1583     1.0  0.09200201317404123  0.4560545272758075  0.6484387647427496  1.0000
  H   H1584     1.0  0.11366908079875104  0.455146401856497  0.5688897020642787  1.0000
  H   H1585     1.0  0.1730353282826307  0.530490125714298  0.6653388157001503  1.0000
  H   H1586     1.0  0.1714790755406908  0.5712692257166563  0.6607164485514159  1.0000
  H   H1587     1.0  0.20029916763924635  0.5783190817123284  0.5831201599409839  1.0000
  H   H1588     1.0  0.19878635018374616  0.5359005586778353  0.5872177651332264  1.0000
  H   H1589     1.0  0.1602693309603546  0.4504027677500602  0.6529998288311322  1.0000
  H   H1590     1.0  0.16499243207475753  0.4387587386918267  0.695644061183825  1.0000
  H   H1591     1.0  0.2253162247451486  0.520433084429966  0.7086923011814692  1.0000
  H   H1592     1.0  0.22079574193286253  0.531676353328171  0.6660344890369262  1.0000
  H   H1593     1.0  0.09739341146506106  0.4181190462816923  0.7434371686149817  1.0000
  H   H1594     1.0  0.1407604257849935  0.42471806112369814  0.7425913415797494  1.0000
  H   H1595     1.0  0.17376631787794022  0.5089860642430107  0.7396154271943216  1.0000
  H   H1596     1.0  0.12797775871028821  0.5015284685112428  0.7395708078782429  1.0000
  H   H1597     1.0  0.24368928220783498  0.487133168474015  0.7296788995006059  1.0000
  H   H1598     1.0  0.28333570237793887  0.5213337329661112  0.7512979281259026  1.0000
  H   H1599     1.0  0.23560491252463422  0.5373728991426981  0.8014771989821413  1.0000
  H   H1600     1.0  0.1959876028741026  0.5029228925616032  0.7799163694647734  1.0000
  H   H1601     1.0  0.17931438855525125  0.4459896218566961  0.7852842671860758  1.0000
  H   H1602     1.0  0.1757765836054037  0.4039547156760159  0.7972500037762439  1.0000
  H   H1603     1.0  0.20209462641982331  0.39892591189001636  0.7211236306350676  1.0000
  H   H1604     1.0  0.20712250444293492  0.4406226663306707  0.7101433989391615  1.0000
  C   C2213     1.0  0.2752560334927275  0.5263415454953628  0.8333644902163482  1.0000
  C   C2214     1.0  0.2763439878219801  0.5444127455868003  0.8510899985212061  1.0000
  C   C2215     1.0  0.2547498228576934  0.536657369780116  0.867465287522115  1.0000
  C   C2216     1.0  0.23152324964052096  0.5126663947963587  0.8651547829373404  1.0000
  C   C2217     1.0  0.23289794775178446  0.49431467431945675  0.84909958903004  1.0000
  C   C2218     1.0  0.254459174119456  0.5003522965604129  0.8336225062614994  1.0000
  H   H1605     1.0  0.2930253714233992  0.5644409384542787  0.8517204888571018  1.0000
  H   H1606     1.0  0.2563605413476853  0.5518484649867766  0.8810450793721757  1.0000
  H   H1607     1.0  0.21573228320714236  0.4746214615438819  0.8466047872701573  1.0000
  H   H1608     1.0  0.25261807445164414  0.4857331741277161  0.8195189224400792  1.0000
  C   C2219     1.0  0.17335100333114822  0.4894058621898876  0.8426976871578684  1.0000
  C   C2220     1.0  0.17728791743124211  0.48888296851937196  0.8690269635848721  1.0000
  C   C2221     1.0  0.15481881807768963  0.4729383625877898  0.8840539732520962  1.0000
  C   C2222     1.0  0.13007432585140127  0.4597199849911177  0.8740262669559585  1.0000
  C   C2223     1.0  0.1263897071335605  0.4600514774032889  0.8483119611027364  1.0000
  C   C2224     1.0  0.14809844016095208  0.47584188521233045  0.832243187403586  1.0000
  C   C2225     1.0  0.20547774687922893  0.5057261899394189  0.8822769604900027  1.0000
  C   C2226     1.0  0.20248628562100324  0.5309841014359198  0.8912221633786641  1.0000
  C   C2227     1.0  0.18924732432504146  0.5311638259236023  0.9142108110105527  1.0000
  C   C2228     1.0  0.18559479084673516  0.5519800438182216  0.92033529713493  1.0000
  C   C2229     1.0  0.19528008188202634  0.5734975613827334  0.9042025044170579  1.0000
  C   C2230     1.0  0.20689009072668518  0.5733937012658117  0.8805620267763665  1.0000
  C   C2231     1.0  0.20934598057399476  0.5516280473774055  0.873898228918515  1.0000
  C   C2232     1.0  0.20029679193178246  0.46219347246907044  0.8999423297166672  1.0000
  C   C2233     1.0  0.19984681236520419  0.4458172800637089  0.9189831378607167  1.0000
  C   C2234     1.0  0.20709387122843795  0.45492020184231224  0.9438942960245212  1.0000
  C   C2235     1.0  0.21524209996709132  0.4812758978725669  0.9487675013284287  1.0000
  C   C2236     1.0  0.2186578307977348  0.4988207796512475  0.9290477035918762  1.0000
  C   C2237     1.0  0.20831300161006863  0.48873257125499686  0.904831054782689  1.0000
  C   C2238     1.0  0.2021748758974942  0.43382913773544374  0.9663475118634645  1.0000
  C   C2239     1.0  0.11611560740776784  0.4011128431563794  0.9731917269558951  1.0000
  C   C2240     1.0  0.12597190206862807  0.3895032064176192  0.95644784360477  1.0000
  C   C2241     1.0  0.1531393619867058  0.39911166483477256  0.954845428166463  1.0000
  C   C2242     1.0  0.17077593756304535  0.4204410357987917  0.9701091142059313  1.0000
  C   C2243     1.0  0.16034587234352288  0.43226167674219  0.9857200549227083  1.0000
  C   C2244     1.0  0.13355106301067504  0.42232121624108193  0.9882555960581408  1.0000
  C   C2245     1.0  0.2205601833504624  0.44733673097974225  0.9913149291649334  1.0000
  C   C2246     1.0  0.24603138211960876  0.4686961807862532  0.9896911740537186  1.0000
  C   C2247     1.0  0.2613315942392414  0.4802197063484544  0.5109144487450995  1.0000
  C   C2248     1.0  0.25232789918225224  0.46873247177822225  0.535025193136703  1.0000
  C   C2249     1.0  0.22843991417779802  0.44472549802074046  0.536470276986576  1.0000
  C   C2250     1.0  0.21233167142373  0.435411521265141  0.5152599821371189  1.0000
  C   C2251     1.0  0.19885115517737453  0.38788262069562385  0.9712323569889576  1.0000
  C   C2252     1.0  0.20679933057483108  0.37020325699212764  0.9650399719053299  1.0000
  C   C2253     1.0  0.2273554464554919  0.37733817864614716  0.9468896101125917  1.0000
  C   C2254     1.0  0.24053609586747127  0.402534194507147  0.935907438446421  1.0000
  C   C2255     1.0  0.2323695412348848  0.42017115215390965  0.9428893914276167  1.0000
  C   C2256     1.0  0.21116828755198644  0.4129719692622568  0.959933970169707  1.0000
  H   H1609     1.0  0.18917138987579973  0.5022201495562714  0.829436050431152  1.0000
  H   H1610     1.0  0.15577771677291624  0.4729086027796298  0.9045827385888596  1.0000
  H   H1611     1.0  0.11262353639938068  0.4482981608383599  0.8864711762014073  1.0000
  H   H1612     1.0  0.14575903994969674  0.47704810835148737  0.8117221819478799  1.0000
  H   H1613     1.0  0.18211927956291374  0.5152251785128099  0.927998179678893  1.0000
  H   H1614     1.0  0.17449656636533026  0.5502577530701368  0.9376165522492644  1.0000
  H   H1615     1.0  0.21272913948152514  0.5897442479665118  0.8670462539450274  1.0000
  H   H1616     1.0  0.21605908200661142  0.5508575228084636  0.8548263812502371  1.0000
  H   H1617     1.0  0.1933358393641824  0.45294889908518887  0.8812895156254767  1.0000
  H   H1618     1.0  0.19290249241585175  0.4254166567634029  0.9144688270557039  1.0000
  H   H1619     1.0  0.2203614180497926  0.48993633566237305  0.968006186439436  1.0000
  H   H1620     1.0  0.22649291280054562  0.519178975777378  0.9337346717504114  1.0000
  H   H1621     1.0  0.1117680309044737  0.3728630912769628  0.9445344862117384  1.0000
  H   H1622     1.0  0.15981389159622156  0.3898687643076597  0.9412811560785165  1.0000
  H   H1623     1.0  0.17451153148378046  0.4504860658309097  0.9960736762232475  1.0000
  H   H1624     1.0  0.12680077321083869  0.43183189245081804  0.5022641213366108  1.0000
  H   H1625     1.0  0.2539737465637643  0.4770993887278776  0.9708948021629705  1.0000
  H   H1626     1.0  0.2799167435505634  0.4985235528761372  0.5088929997297048  1.0000
  H   H1627     1.0  0.22210354981122646  0.4342323376126895  0.5553262059644382  1.0000
  H   H1628     1.0  0.19308897435607317  0.4170220671780445  0.5172387518066992  1.0000
  H   H1629     1.0  0.18331130408246887  0.383211362826067  0.9853243009887922  1.0000
  H   H1630     1.0  0.19753836094858107  0.351401557723546  0.9749609798369314  1.0000
  H   H1631     1.0  0.25600166526830154  0.40877197723485975  0.9214410801855779  1.0000
  H   H1632     1.0  0.2426722169417973  0.43976962554238036  0.9344796203319005  1.0000
  C   C2257     1.0  0.28763847077509985  0.5521402403253435  0.7910576186926161  1.0000
  C   C2258     1.0  0.2952951174516603  0.5368538551845997  0.8103913623465739  1.0000
  H   H1633     1.0  0.30413537429606974  0.5642633041132243  0.7769501549306672  1.0000
  H   H1634     1.0  0.28414876600288796  0.566138986754865  0.8027381796539327  1.0000
  H   H1635     1.0  0.2945973236494633  0.5199913138218902  0.800064900629735  1.0000
  H   H1636     1.0  0.3156677403648156  0.5502699970267144  0.817190958122926  1.0000
  C   C2259     1.0  0.2604820954770501  0.4748687683045187  0.5847150094952603  1.0000
  C   C2260     1.0  0.27226528488057455  0.48182605120765554  0.5566411178095769  1.0000
  H   H1637     1.0  0.25269716406369636  0.45360339309202274  0.5887220180761604  1.0000
  H   H1638     1.0  0.27764822354260793  0.4851993262771044  0.5973738974608604  1.0000
  H   H1639     1.0  0.2876203273492037  0.4763464967097511  0.5534958440200763  1.0000
  H   H1640     1.0  0.28259842053083983  0.5037692221455833  0.5539375752492562  1.0000
  C   C2261     1.0  0.1917890891512957  0.5973168362430679  0.910943901085481  1.0000
  C   C2262     1.0  0.21861076882162747  0.6242355149536012  0.9118692669015493  1.0000
  H   H1641     1.0  0.18182235328472765  0.5951967485457391  0.929779072381515  1.0000
  H   H1642     1.0  0.17820086138284408  0.5980518253244501  0.8968577769964394  1.0000
  H   H1643     1.0  0.23061867187508897  0.6265562160430621  0.8939032022839188  1.0000
  H   H1644     1.0  0.2309916820578153  0.6240728213798056  0.9284482527802091  1.0000
  C   C2263     1.0  0.2937968265112316  0.8018180154285138  0.7352310943970165  1.0000
  C   C2264     1.0  0.29327490099674486  0.7919840060041188  0.763091007362548  1.0000
  H   H1645     1.0  0.2916062567191665  0.8201440323560422  0.7362534587262995  1.0000
  H   H1646     1.0  0.31348578506334207  0.8079635671501141  0.7265342077021847  1.0000
  H   H1647     1.0  0.31335605444306514  0.8065153988145484  0.7715803172391005  1.0000
  H   H1648     1.0  0.2925111505488923  0.7721681500462736  0.7621578816654224  1.0000
  C   C2265     1.0  0.2682730741086423  0.8048164222241208  0.983589967572513  1.0000
  C   C2266     1.0  0.27342114099275033  0.7980959873526995  0.5105555542462049  1.0000
  H   H1649     1.0  0.26239049139252374  0.8201869712405545  0.9822087087443352  1.0000
  H   H1650     1.0  0.28673818538287055  0.8148816785268894  0.9725845162631709  1.0000
  H   H1651     1.0  0.2938784651397853  0.8121802790676125  0.5160631298265369  1.0000
  H   H1652     1.0  0.2739225712318498  0.7792223294956129  0.5099308838211023  1.0000
  C   C2267     1.0  0.21702610922869847  0.6282701105261381  0.6254772766945613  1.0000
  C   C2268     1.0  0.1887870031957466  0.6052779858150551  0.6201016190922014  1.0000
  H   H1653     1.0  0.23000616680662292  0.6328084389962064  0.6080577017003826  1.0000
  H   H1654     1.0  0.22592489878295907  0.6211264866525352  0.6401135763505567  1.0000
  H   H1655     1.0  0.18216884500363298  0.6084569451070935  0.6012563599507929  1.0000
  H   H1656     1.0  0.17524005250036165  0.6063287353342449  0.6344779627327816  1.0000
  C   C2269     1.0  0.10639012174211569  0.6584141941746002  0.7233487765282133  1.0000
  C   C2270     1.0  0.09894004051525028  0.6796710432799344  0.7301134528398078  1.0000
  H   H1657     1.0  0.09046789844899317  0.6434040945005195  0.710537212902813  1.0000
  H   H1658     1.0  0.10552342267671855  0.647227590928487  0.741429299391437  1.0000
  H   H1659     1.0  0.11049436228100921  0.6924431415864528  0.7468786758638398  1.0000
  H   H1660     1.0  0.10446865354349562  0.6928957730314717  0.7132143718675392  1.0000
  C   C2271     1.0  0.08440026261281706  0.6848532007721817  0.8568032109495528  1.0000
  C   C2272     1.0  0.0934101286820144  0.6900163637275306  0.8279422733276454  1.0000
  H   H1661     1.0  0.09851903777128856  0.7020160691263919  0.8692423002842087  1.0000
  H   H1662     1.0  0.08668091161655653  0.6678818882830672  0.8636532459527766  1.0000
  H   H1663     1.0  0.08076798628895819  0.6951722063271465  0.8169581616912106  1.0000
  H   H1664     1.0  0.09020659992709389  0.6714426800696149  0.8189408113013195  1.0000
  C   C2273     1.0  0.8820918257153563  0.5900733089685275  0.9256430557780395  1.0000
  C   C2274     1.0  0.8801045450815735  0.6070939885745061  0.948249529267862  1.0000
  H   H1665     1.0  0.8637540991105225  0.5809736362575171  0.9146802838145119  1.0000
  H   H1666     1.0  0.8839934378340905  0.5733117276320907  0.9330052429310366  1.0000
  H   H1667     1.0  0.8813402368064245  0.6254700077517401  0.9404954681214772  1.0000
  H   H1668     1.0  0.8594699864550928  0.5958895936553169  0.9569289562303152  1.0000
  C   C2275     1.0  0.91022772237586  0.655474678296885  0.7115925567265892  1.0000
  C   C2276     1.0  0.8987032804550826  0.6458356734080943  0.6847121347474997  1.0000
  H   H1669     1.0  0.8933127649101656  0.6464159632973844  0.7258571580799459  1.0000
  H   H1670     1.0  0.9173318325061508  0.6769297147265201  0.7137498036604845  1.0000
  H   H1671     1.0  0.8918809072414122  0.6246795977159377  0.6826006711118416  1.0000
  H   H1672     1.0  0.8807608431195127  0.6473545594620694  0.6830224206472995  1.0000
  C   C2277     1.0  0.06838619786674209  0.6619912050872813  0.9441697718020511  1.0000
  C   C2278     1.0  0.081597459265012  0.6459164596613132  0.9518792136323568  1.0000
  H   H1673     1.0  0.06279468081138279  0.6590019952780539  0.9236351865544947  1.0000
  H   H1674     1.0  0.08371053977778346  0.6835324322695537  0.9461873408769172  1.0000
  H   H1675     1.0  0.08032180456454388  0.6419902772989318  0.9730481691563372  1.0000
  H   H1676     1.0  0.07100118004155777  0.6262562755684393  0.9415508119452536  1.0000
  C   C2279     1.0  0.0807660030371037  0.7630080875423928  0.5998589993694217  1.0000
  C   C2280     1.0  0.09334949836492615  0.7571378106027891  0.5761030934980046  1.0000
  H   H1677     1.0  0.0866469665520816  0.78347797621199  0.5995497681092931  1.0000
  H   H1678     1.0  0.08806344524904818  0.7590070315012173  0.6182524394362761  1.0000
  H   H1679     1.0  0.08862338063959059  0.763599046275222  0.5578582551533953  1.0000
  H   H1680     1.0  0.08273940943688596  0.7347361282702212  0.5744046495316149  1.0000
  C   C2281     1.0  0.08549806525632798  0.461618586416877  0.8402727243275004  1.0000
  C   C2282     1.0  0.09844562536286784  0.44436383341251084  0.8378594013187184  1.0000
  H   H1681     1.0  0.0852728860435779  0.46678307272077124  0.8608790884748354  1.0000
  H   H1682     1.0  0.09797276175996399  0.4806755771248415  0.8297115262086818  1.0000
  H   H1683     1.0  0.09858779669793254  0.4379578768436004  0.817619691551335  1.0000
  H   H1684     1.0  0.08625302810943543  0.42527161369340727  0.8482130226192575  1.0000
  C   C2283     1.0  0.07640633095232424  0.4513231591981254  0.7050199374711597  1.0000
  C   C2284     1.0  0.0812881457571256  0.4529135405339262  0.7345967241205921  1.0000
  H   H1685     1.0  0.09204908868647924  0.45002638129408074  0.6939989663997035  1.0000
  H   H1686     1.0  0.07858629126801722  0.47055888723207007  0.699050648967926  1.0000
  H   H1687     1.0  0.06650895525949325  0.4341897332096217  0.7444789326469077  1.0000
  H   H1688     1.0  0.07811296757099438  0.4689240167097551  0.7438659020433908  1.0000
  C   C2285     1.0  0.9944324929267863  0.5175398498838985  0.7653918120960012  1.0000
  C   C2286     1.0  0.9691615780568056  0.5186568476948014  0.75967665969739  1.0000
  H   H1689     1.0  0.005602005332313101  0.5299919550163915  0.7818291801453676  1.0000
  H   H1690     1.0  0.007634804990156073  0.5262224206497111  0.7490281629166782  1.0000
  H   H1691     1.0  0.9531896375954815  0.5076895399470094  0.774655170108007  1.0000
  H   H1692     1.0  0.9599040411669101  0.5077751797551878  0.7410180256954064  1.0000
  C   C2287     1.0  0.070517850980321  0.4393983467779263  0.6016439660095989  1.0000
  C   C2288     1.0  0.05992828462173314  0.45900067820615503  0.5995099987188751  1.0000
  H   H1693     1.0  0.06612867115775956  0.4266268539764718  0.5840658954448275  1.0000
  H   H1694     1.0  0.0584713532679488  0.42493868224798387  0.6168661366854112  1.0000
  H   H1695     1.0  0.059820214409934805  0.46731409089377074  0.6187676955384727  1.0000
  H   H1696     1.0  0.07404680992874109  0.47649338314569023  0.5886230795926813  1.0000
  C   C2289     1.0  0.07505478540053356  0.3943163943506803  0.9497277866092543  1.0000
  C   C2290     1.0  0.086401677897706  0.39182991335518313  0.9752616752278971  1.0000
  H   H1697     1.0  0.08068952535084643  0.3859672675776731  0.9329082444178219  1.0000
  H   H1698     1.0  0.08397244803287847  0.41605698013738934  0.94490114059169  1.0000
  H   H1699     1.0  0.08247232125632245  0.40267660283978407  0.9911403318411467  1.0000
  H   H1700     1.0  0.07651843640612956  0.37104777465729316  0.9815510588247395  1.0000
  C   C2291     1.0  0.8842393732433488  0.345847023446063  0.885522530742167  1.0000
  C   C2292     1.0  0.8847146704460452  0.3388940609308911  0.8567527717226813  1.0000
  H   H1701     1.0  0.8880879024885032  0.36593580097541367  0.8890319369502756  1.0000
  H   H1702     1.0  0.8640601699725552  0.33303311060337515  0.8930554352784223  1.0000
  H   H1703     1.0  0.8659427558975012  0.3346961769818476  0.8481528835410642  1.0000
  H   H1704     1.0  0.8836519060816448  0.31959580119984493  0.8560873619220284  1.0000
  C   C2293     1.0  0.8681038376064447  0.33029580334158504  0.6185467329253695  1.0000
  C   C2294     1.0  0.8757774408351863  0.34781137289561914  0.6429092674984314  1.0000
  H   H1705     1.0  0.8690546012169932  0.31259163609649987  0.6244747000619737  1.0000
  H   H1706     1.0  0.8477966985661005  0.3233650585238594  0.6133819500907385  1.0000
  H   H1707     1.0  0.8585768154259704  0.3393653175708629  0.6570215811860409  1.0000
  H   H1708     1.0  0.8792333720464399  0.3678948510373533  0.6374759927792221  1.0000
  C   C2295     1.0  0.9448605740681894  0.49827546890349106  0.5259269265941888  1.0000
  C   C2296     1.0  0.9712146651924463  0.5252309730776028  0.5296782470942549  1.0000
  H   H1709     1.0  0.9385725195070507  0.496161710570657  0.5054301528079392  1.0000
  H   H1710     1.0  0.9293115212109709  0.4984207661862032  0.5378575497225729  1.0000
  H   H1711     1.0  0.9795844471730072  0.5268398228634997  0.5491155851603261  1.0000
  H   H1712     1.0  0.9864774087329331  0.5253144998958507  0.517335750319914  1.0000
  C   C2297     1.0  0.5887750974352285  0.7734800982054564  0.9293018396964986  1.0000
  C   C2298     1.0  0.5986236530255775  0.7883299759594629  0.9554254792754869  1.0000
  H   H1713     1.0  0.577312416829832  0.7807208709387388  0.918581564016008  1.0000
  H   H1714     1.0  0.5742113519776609  0.7522222940041899  0.9321885154497686  1.0000
  H   H1715     1.0  0.5843601503400174  0.7946710168822295  0.9616702435562504  1.0000
  H   H1716     1.0  0.6171759079751895  0.8074373603611505  0.9515532986279551  1.0000
  C   C2299     1.0  0.618366270033795  0.8117699392698868  0.6923238020764853  1.0000
  C   C2300     1.0  0.6234931259459502  0.8060647160477922  0.7198374303498403  1.0000
  H   H1717     1.0  0.6232610697656825  0.8328106293868737  0.69248055167384  1.0000
  H   H1718     1.0  0.59656253054199  0.7995910780542932  0.6877146267255481  1.0000
  H   H1719     1.0  0.6138164462663005  0.8139225165323705  0.7331630860952785  1.0000
  H   H1720     1.0  0.6447040358225963  0.8185841282075036  0.7239579271912017  1.0000
  C   C2301     1.0  0.2532505755250025  0.3538988654831531  0.9585119719659795  1.0000
  C   C2302     1.0  0.2347222331682266  0.3566476800142799  0.9394886235543085  1.0000
  H   H1721     1.0  0.2585974753544807  0.3395253151557103  0.9505483940310506  1.0000
  H   H1722     1.0  0.24110407462608058  0.3433562068539892  0.9760105037499148  1.0000
  H   H1723     1.0  0.24287768558493034  0.3607991761649018  0.919570948850798  1.0000
  H   H1724     1.0  0.21578574954715615  0.337713291099816  0.9366543269981743  1.0000
  C   C2303     1.0  0.49505382366492195  0.5990609817003816  0.5663429091013131  1.0000
  C   C2304     1.0  0.494646764181573  0.6236612222759357  0.5589626802248578  1.0000
  H   H1725     1.0  0.5077095539629035  0.6025567868205013  0.5831028942056317  1.0000
  H   H1726     1.0  0.5053314960634169  0.594184729791242  0.5510068621709867  1.0000
  H   H1727     1.0  0.48777351727309515  0.6306208483095886  0.5750491076534134  1.0000
  H   H1728     1.0  0.48087085827786097  0.6194090291034777  0.5430275704769175  1.0000
  C   C2305     1.0  0.2024871920210566  0.3612818500576819  0.7580451447051185  1.0000
  C   C2306     1.0  0.18435491841276133  0.3708223239972467  0.7702184581135658  1.0000
  H   H1729     1.0  0.19984654592248494  0.34345694507430896  0.7686800616939803  1.0000
  H   H1730     1.0  0.19467508655817306  0.3535509052796902  0.7387230408727462  1.0000
  H   H1731     1.0  0.1862469846111894  0.3709409600898168  0.7917327283445905  1.0000
  H   H1732     1.0  0.16306482286333274  0.35495226525861323  0.7675471190596324  1.0000
  C   C2307     1.0  0.3217087623327618  0.5289967169872388  0.9215613583419642  1.0000
  C   C2308     1.0  0.3051281055951261  0.5135606401510345  0.897292330335641  1.0000
  H   H1733     1.0  0.3396479526503613  0.5488168052763485  0.9168064912241786  1.0000
  H   H1734     1.0  0.30976697736573994  0.5342644641406239  0.9341963846733135  1.0000
  H   H1735     1.0  0.2970566866699702  0.5254119677146909  0.8895906483863927  1.0000
  H   H1736     1.0  0.28727518867890595  0.494852397928047  0.9035545543487835  1.0000
  C   C2309     1.0  0.31919962759463166  0.5218971229101864  0.6711540705643991  1.0000
  C   C2310     1.0  0.3062554729790161  0.5090975493253168  0.644898125013386  1.0000
  H   H1737     1.0  0.3399826896595946  0.5385565730628029  0.6682924204275382  1.0000
  H   H1738     1.0  0.30783385143939307  0.5305963455542345  0.6788887320081408  1.0000
  H   H1739     1.0  0.2970991715743008  0.5198631662697589  0.6362460516316594  1.0000
  H   H1740     1.0  0.28870363437045804  0.48885344607798054  0.649428731568619  1.0000
  C   C2311     1.0  0.4878819513463088  0.5976459087423958  0.8117881409368659  1.0000
  C   C2312     1.0  0.48704434928208606  0.6228993488311133  0.8040495995525955  1.0000
  H   H1741     1.0  0.5014863660314487  0.601847894004837  0.8284583054179477  1.0000
  H   H1742     1.0  0.4971112526497112  0.5927854745609255  0.7958706849183304  1.0000
  H   H1743     1.0  0.4801683312495994  0.6302524258068788  0.8205645664125338  1.0000
  H   H1744     1.0  0.4726886002475761  0.6171881722642831  0.7885317774085048  1.0000
  C   C2313     1.0  0.4648050221176161  0.4709953671791273  0.8830548885659848  1.0000
  C   C2314     1.0  0.4346388494116381  0.45475642738094646  0.8909777271253628  1.0000
  H   H1745     1.0  0.4752734630838449  0.4893182972765858  0.8950186851858882  1.0000
  H   H1746     1.0  0.4663221282928283  0.47852994333806764  0.8633932899373609  1.0000
  H   H1747     1.0  0.4261395668342443  0.43407265670468403  0.8852140754701442  1.0000
  H   H1748     1.0  0.43298353306938303  0.4551743195301165  0.9124454380700449  1.0000
  C   C2315     1.0  0.44340374949958067  0.44950177584750933  0.969645461312765  1.0000
  C   C2316     1.0  0.45164425539306136  0.4437589678162476  0.9958176001483604  1.0000
  H   H1749     1.0  0.46053366514463145  0.4673917511172273  0.9604868616950312  1.0000
  H   H1750     1.0  0.4388548939054369  0.43307595563349344  0.9561937075001475  1.0000
  H   H1751     1.0  0.43405727224353585  0.4353047321598121  0.5093702324147211  1.0000
  H   H1752     1.0  0.46697622356240764  0.46244597716762587  0.5049238205689585  1.0000
  C   C2317     1.0  0.44696072990876967  0.45695002549100344  0.6365385991475148  1.0000
  C   C2318     1.0  0.475357928306506  0.4812045417558939  0.6393703737423055  1.0000
  H   H1753     1.0  0.43831409786681963  0.44699793258750603  0.6545582069444398  1.0000
  H   H1754     1.0  0.447387739921457  0.4412050336536184  0.6246890667761783  1.0000
  H   H1755     1.0  0.4823789281728995  0.4917434213241785  0.620559452074575  1.0000
  H   H1756     1.0  0.4750948152194381  0.4960628474980914  0.6522589541871981  1.0000
  C   C2319     1.0  0.3822838198607978  0.39052114480743405  0.7229491426537685  1.0000
  C   C2320     1.0  0.37693486098488693  0.3699115407949808  0.7438756018947122  1.0000
  H   H1757     1.0  0.40405710060771594  0.4049992154335627  0.7225475688090597  1.0000
  H   H1758     1.0  0.37891574087490465  0.38170033322788444  0.7039762334689695  1.0000
  H   H1759     1.0  0.3561840989720016  0.35406242903769886  0.7458776512074641  1.0000
  H   H1760     1.0  0.3805218626639944  0.37902502448223335  0.7629901289088048  1.0000
  C   C2321     1.0  0.5684023948711647  0.38313894198615034  0.5740038516750116  1.0000
  C   C2322     1.0  0.5532710791503599  0.3677121255797502  0.5985908408076525  1.0000
  H   H1761     1.0  0.5815453421975706  0.3754917917259757  0.5671381029126474  1.0000
  H   H1762     1.0  0.5827419962449385  0.4040578086327848  0.5792070459208757  1.0000
  H   H1763     1.0  0.5634942798960443  0.35882139805077273  0.6077149089546817  1.0000
  H   H1764     1.0  0.5338059788559318  0.3502310058443739  0.5927614241604742  1.0000
  C   C2323     1.0  0.48749912378824856  0.29717931966775374  0.8159939964698563  1.0000
  C   C2324     1.0  0.4840669847436656  0.30890665520303734  0.8420749567030298  1.0000
  H   H1765     1.0  0.4801637189542852  0.27503962522815284  0.819043629725327  1.0000
  H   H1766     1.0  0.5096035519253168  0.3059866535220825  0.8123701320161543  1.0000
  H   H1767     1.0  0.4920777455571068  0.301895718029264  0.8569972079759823  1.0000
  H   H1768     1.0  0.46240953375679217  0.29891652104174504  0.8470490404606807  1.0000
  C   C2325     1.0  0.9292688059168314  0.7421225927235211  0.9047068966857744  1.0000
  C   C2326     1.0  0.9543672263413369  0.7500624110837673  0.8873984819877399  1.0000
  H   H1769     1.0  0.9314559151922903  0.7600152265851218  0.9140459135380875  1.0000
  H   H1770     1.0  0.9286481992331899  0.7291051334527187  0.9203934962428587  1.0000
  H   H1771     1.0  0.953212308607379  0.7600580218800705  0.8694886765077738  1.0000
  H   H1772     1.0  0.9722805252983627  0.7664418878574032  0.897259350841148  1.0000
  C   C2327     1.0  0.676893153179706  0.6706068449749003  0.9780397126463667  1.0000
  C   C2328     1.0  0.6472066400847344  0.6494631929339593  0.9826432620835374  1.0000
  H   H1773     1.0  0.6791695068096077  0.6877071859452246  0.966384371298486  1.0000
  H   H1774     1.0  0.6862828133413214  0.6797880890591262  0.9971658794820452  1.0000
  H   H1775     1.0  0.6457401774461947  0.6343553214203151  0.9972861576384312  1.0000
  H   H1776     1.0  0.6387206814983968  0.638431543327602  0.9641184860297902  1.0000
  C   C2329     1.0  0.7616262931584349  0.7505634703425403  0.8504381685124031  1.0000
  C   C2330     1.0  0.7438887084867969  0.745873716724481  0.8746780969647616  1.0000
  H   H1777     1.0  0.7741953549059991  0.7722871570124438  0.8465310684001142  1.0000
  H   H1778     1.0  0.7476905325092987  0.742312215720882  0.8341909175489377  1.0000
  H   H1779     1.0  0.7340151247760365  0.7248431074894665  0.8800983738832  1.0000
  H   H1780     1.0  0.7565613396705856  0.7573545381969639  0.8905489936969537  1.0000
  C   C2331     1.0  0.6260295265915352  0.5391593231290163  0.8801158336155789  1.0000
  C   C2332     1.0  0.6254581261218446  0.5127054893619325  0.8735063549251277  1.0000
  H   H1781     1.0  0.610517281105403  0.5353939635302732  0.8952670013797179  1.0000
  H   H1782     1.0  0.6188945961456627  0.5445323305711195  0.8629548566576304  1.0000
  H   H1783     1.0  0.639164907056762  0.5100075742982817  0.8859667839326905  1.0000
  H   H1784     1.0  0.6347706175604862  0.5151628788261851  0.8539514546610403  1.0000
  C   C2333     1.0  0.8965297371857817  0.7362420045569235  0.5543364331355951  1.0000
  C   C2334     1.0  0.8702690047036664  0.7197458919258835  0.5391707155944737  1.0000
  H   H1785     1.0  0.9087349820549032  0.7542815804636591  0.5426690639720758  1.0000
  H   H1786     1.0  0.8909734102896022  0.7439509272382675  0.571191864776917  1.0000
  H   H1787     1.0  0.872719043342295  0.7080369499249555  0.5236076741843777  1.0000
  H   H1788     1.0  0.8682642940158684  0.7347976385999677  0.5271130244137784  1.0000
  C   C2335     1.0  0.6432510747865063  0.6476157607936862  0.7248037542264341  1.0000
  C   C2336     1.0  0.6731110814423514  0.670844065206637  0.7255390029566017  1.0000
  H   H1789     1.0  0.6392006205991808  0.6295632613875376  0.7355240299069249  1.0000
  H   H1790     1.0  0.636798329408409  0.6414052047925042  0.7051925948246821  1.0000
  H   H1791     1.0  0.6761378116609114  0.6863300426702679  0.7111347237442158  1.0000
  H   H1792     1.0  0.6776944764699561  0.6817544278419585  0.7445778711303865  1.0000
  C   C2337     1.0  0.6921980943354561  0.6874150267638812  0.6119265843984649  1.0000
  C   C2338     1.0  0.7001248198872544  0.7064696077800686  0.6357886066433388  1.0000
  H   H1793     1.0  0.6713624523574712  0.6704990908433918  0.6151783625554752  1.0000
  H   H1794     1.0  0.6910739004230041  0.697212244714886  0.5943238762113369  1.0000
  H   H1795     1.0  0.7220057153024892  0.7159039494979943  0.6381256888207343  1.0000
  H   H1796     1.0  0.6917215668488995  0.6951680148785514  0.6542846711371744  1.0000
  C   C2339     1.0  0.7657867535713981  0.5697175068602035  0.9987702348906167  1.0000
  C   C2340     1.0  0.745177699879095  0.5605710366916837  0.5211458519189882  1.0000
  H   H1797     1.0  0.7865200116615461  0.5824714846719348  0.5062371804378857  1.0000
  H   H1798     1.0  0.7652853638237166  0.5517116726992984  0.9911577915735252  1.0000
  H   H1799     1.0  0.74599830132683  0.5447353692575655  0.5319798278158138  1.0000
  H   H1800     1.0  0.7244865475873029  0.5497530967782309  0.513112435054545  1.0000
  C   C2341     1.0  0.8514947179424242  0.6646157835883366  0.7376579971976487  1.0000
  C   C2342     1.0  0.8581784363506294  0.6612947248418674  0.7653956920365299  1.0000
  H   H1801     1.0  0.859011620748681  0.6543461867554503  0.7246427366944975  1.0000
  H   H1802     1.0  0.8629605153850566  0.6859059788680205  0.732125202003881  1.0000
  H   H1803     1.0  0.8798693390372597  0.6713334944081373  0.7670369068801228  1.0000
  H   H1804     1.0  0.8504394751499899  0.6393630292773305  0.7676285978107327  1.0000
  C   C2343     1.0  0.6244912399149093  0.5192764878224199  0.72741301423191  1.0000
  C   C2344     1.0  0.6503285621673767  0.5186707513028622  0.7229064633079542  1.0000
  H   H1805     1.0  0.6266192591631411  0.5376004669246731  0.7190963617088799  1.0000
  H   H1806     1.0  0.620897269167007  0.5185032175039407  0.748481091302147  1.0000
  H   H1807     1.0  0.6494038458530295  0.5062512085771194  0.7062634584105726  1.0000
  H   H1808     1.0  0.6528239395642459  0.5075585593381412  0.7389189778694402  1.0000
  C   C2345     1.0  0.23383309290033427  0.9056398181335197  0.8388235665400727  1.0000
  C   C2346     1.0  0.20757097925580006  0.8794769098637408  0.8459956366071689  1.0000
  H   H1809     1.0  0.24012603015775202  0.9046110786444015  0.8194355037187145  1.0000
  H   H1810     1.0  0.22990800853084228  0.9226253497644756  0.8381271172151907  1.0000
  H   H1811     1.0  0.19082326872724076  0.8783473775956574  0.8350542043165488  1.0000
  H   H1812     1.0  0.20297114581829062  0.8814462678917871  0.8668095775727835  1.0000
  C   C2347     1.0  0.26491768925595377  0.9124026378690616  0.6751490513296606  1.0000
  C   C2348     1.0  0.2456975495755256  0.9032586805842375  0.6518459345179297  1.0000
  H   H1813     1.0  0.2571609475918627  0.8967661048517389  0.68986663573973  1.0000
  H   H1814     1.0  0.2634099678886355  0.928611418170369  0.6841388735344007  1.0000
  H   H1815     1.0  0.22778319906083308  0.9025808299666407  0.6592888244339216  1.0000
  H   H1816     1.0  0.25478362531066073  0.9192260592489808  0.6371803413109436  1.0000
  C   C2349     1.0  0.2972142231095703  0.8840613390930321  0.9962269338741266  1.0000
  C   C2350     1.0  0.30681132963751623  0.8984128811420573  0.5229189847405532  1.0000
  H   H1817     1.0  0.27511861793173237  0.8715579129568884  0.9958369998510035  1.0000
  H   H1818     1.0  0.3022890975126478  0.8680964210473004  0.994535279803662  1.0000
  H   H1819     1.0  0.2952943638440977  0.9086508390137227  0.5264404367231476  1.0000
  H   H1820     1.0  0.30045420655949856  0.8828439776275918  0.5382546616356739  1.0000
  C   C2351     1.0  0.3784717763959649  0.8724804459888359  0.7279484460248553  1.0000
  C   C2352     1.0  0.3566563246043552  0.8637153674825203  0.7489117647008204  1.0000
  H   H1821     1.0  0.3749138086406965  0.8548737537744413  0.7164909816439327  1.0000
  H   H1822     1.0  0.3978304647421579  0.8779446308868523  0.7365231145930364  1.0000
  H   H1823     1.0  0.35185262707175796  0.8436894903180688  0.7556628612205649  1.0000
  H   H1824     1.0  0.3385187887577514  0.8610082718038273  0.7399258224366089  1.0000
  C   C2353     1.0  0.7452733055328166  0.8924050519713898  0.8114738657540501  1.0000
  C   C2354     1.0  0.7421263790274875  0.902803353390914  0.7854918440043556  1.0000
  H   H1825     1.0  0.7633126999093026  0.8914167562087826  0.8099917284721292  1.0000
  H   H1826     1.0  0.7483987310749989  0.9070505574443429  0.8273040231106924  1.0000
  H   H1827     1.0  0.7413750283909243  0.8897544907346755  0.7698459838228212  1.0000
  H   H1828     1.0  0.7610174780317902  0.9212601906142058  0.7823956514625416  1.0000
  C   C2355     1.0  0.5289680302991456  0.9732953167011474  0.8682994747357616  1.0000
  C   C2356     1.0  0.50329660238565  0.9449303255853972  0.8688174467963282  1.0000
  H   H1829     1.0  0.5291992461069288  0.9865526485559762  0.8842285705758829  1.0000
  H   H1830     1.0  0.5289121309991243  0.9837359351622325  0.850284910861524  1.0000
  H   H1831     1.0  0.49972606563316363  0.9363270416267839  0.8890707363555616  1.0000
  H   H1832     1.0  0.5064648175735681  0.9309094585055906  0.8571950849429406  1.0000
  C   C2357     1.0  0.7560374503728562  0.893550540315894  0.5717616340435403  1.0000
  C   C2358     1.0  0.7505642714433548  0.914707229352857  0.5836575317041934  1.0000
  H   H1833     1.0  0.7582665880302403  0.8955450835691234  0.5504072173622933  1.0000
  H   H1834     1.0  0.7762304277943667  0.8988490380223374  0.5785224304146062  1.0000
  H   H1835     1.0  0.7694576664075322  0.9327542316037521  0.5846323667620015  1.0000
  H   H1836     1.0  0.7429481423983824  0.9095136943860084  0.6039335189155192  1.0000
  C   C2359     1.0  0.6319489506276471  0.8700562897446318  0.9341420655059133  1.0000
  C   C2360     1.0  0.6428074684394435  0.884703376969473  0.907702210773845  1.0000
  H   H1837     1.0  0.633975514623653  0.8522824429165116  0.9344233611942359  1.0000
  H   H1838     1.0  0.609999443251949  0.8616387394236155  0.936223653599501  1.0000
  H   H1839     1.0  0.634130100027009  0.8687095192956161  0.8926131220581631  1.0000
  H   H1840     1.0  0.6647373496303468  0.8930429323799896  0.9063151320348746  1.0000
  C   C2361     1.0  0.5874315062779802  0.8720211137612728  0.6732985136945502  1.0000
  C   C2362     1.0  0.5817260704858642  0.8803057172776377  0.7003174495505101  1.0000
  H   H1841     1.0  0.6058475432113015  0.871247616844298  0.6738614930652483  1.0000
  H   H1842     1.0  0.5709701385336954  0.8512638804232334  0.6693062488876586  1.0000
  H   H1843     1.0  0.5690276879185379  0.8609503303896494  0.7100328206340966  1.0000
  H   H1844     1.0  0.5685191995647958  0.8883798322833164  0.6983794192564801  1.0000
  C   C2363     1.0  0.503355078019663  0.9280420185145898  0.5404499319867495  1.0000
  C   C2364     1.0  0.5058295634711029  0.9517148386405367  0.5256464068939718  1.0000
  H   H1845     1.0  0.4986925659936678  0.9120312505796164  0.5269073875657632  1.0000
  H   H1846     1.0  0.4862501908878839  0.9200862246778881  0.5540244859170966  1.0000
  H   H1847     1.0  0.5080163270715455  0.9489329254019006  0.5045726859511211  1.0000
  H   H1848     1.0  0.524026317811148  0.970732567508664  0.5298559483704642  1.0000
  C   C2365     1.0  0.9100919670426209  0.2107204790649731  0.9995947222529417  1.0000
  C   C2366     1.0  0.925888831689842  0.22609298528574986  0.975154976863361  1.0000
  H   H1849     1.0  0.9224728320002276  0.22036386067996439  0.5163774050093525  1.0000
  H   H1850     1.0  0.9078577714624438  0.1909417460281357  0.998838133849867  1.0000
  H   H1851     1.0  0.9140336558937636  0.21538439252553315  0.9572471113536595  1.0000
  H   H1852     1.0  0.9450034258911424  0.2255183731129275  0.972762993527486  1.0000
  C   C2367     1.0  0.686040616258004  0.08325444853099202  0.8937596444843613  1.0000
  C   C2368     1.0  0.6703141148362969  0.09769491534560085  0.8882190894095364  1.0000
  H   H1853     1.0  0.6914869965073023  0.08554573271767749  0.9145464258662757  1.0000
  H   H1854     1.0  0.7050748372452202  0.09489510603673257  0.8834700422025437  1.0000
  H   H1855     1.0  0.6649058408581072  0.09583535500389784  0.866991934777627  1.0000
  H   H1856     1.0  0.6511847079643501  0.0886768115359713  0.8990130839600704  1.0000
  C   C2369     1.0  0.7325891050653066  0.0748915866248707  0.5363071254873488  1.0000
  C   C2370     1.0  0.7330826136351819  0.06200589971767365  0.5100375821856384  1.0000
  H   H1857     1.0  0.7403843621562153  0.06826596525584731  0.551832319518444  1.0000
  H   H1858     1.0  0.7114122803835697  0.06801727773661312  0.5421148144675669  1.0000
  H   H1859     1.0  0.7222192995048436  0.06654592094767996  0.9957050818730313  1.0000
  H   H1860     1.0  0.7534910129361446  0.07259601333128188  0.5025163174709691  1.0000
  C   C2371     1.0  0.9316141773561741  0.22727525569150567  0.6890246886450262  1.0000
  C   C2372     1.0  0.9424443886291977  0.24945347107537164  0.6683184160290799  1.0000
  H   H1861     1.0  0.9271493217163845  0.20825406091121926  0.6790402436857822  1.0000
  H   H1862     1.0  0.9486418156234901  0.23156132023727985  0.7012272956044644  1.0000
  H   H1863     1.0  0.9267038871952819  0.24432007203242717  0.6535792979490769  1.0000
  H   H1864     1.0  0.9583378568513525  0.24920717470974546  0.6561697402429891  1.0000
  C   C2373     1.0  0.648899505857516  0.057096556313326545  0.6321783219814869  1.0000
  C   C2374     1.0  0.6797975708442067  0.06832292286031595  0.6333481240508564  1.0000
  H   H1865     1.0  0.6410642120671765  0.05708162588322875  0.6518112090501988  1.0000
  H   H1866     1.0  0.6445303823631925  0.07061947779620108  0.6204382039330565  1.0000
  H   H1867     1.0  0.6877714056804871  0.07018433438133692  0.6133433446824791  1.0000
  H   H1868     1.0  0.6835572751780092  0.05339716451405163  0.6422900289900685  1.0000
  C   C2375     1.0  0.7710910421039106  0.07254777674606998  0.7662609187744053  1.0000
  C   C2376     1.0  0.7514705458494323  0.059910247403263124  0.7437592036788546  1.0000
  H   H1869     1.0  0.7831642386045609  0.06286037504929076  0.7689167380662242  1.0000
  H   H1870     1.0  0.7576909513789276  0.06725909967254337  0.7839262880010699  1.0000
  H   H1871     1.0  0.7619576945390077  0.06315344096540718  0.7247280953861266  1.0000
  H   H1872     1.0  0.7418312175287802  0.07173648107202359  0.741481678588573  1.0000
  C   C2377     1.0  0.8591842869323714  0.26466609961714466  0.8379020806645329  1.0000
  C   C2378     1.0  0.8570412478048784  0.25541663036922824  0.8669201558778483  1.0000
  H   H1873     1.0  0.8801309004216085  0.28014761912621217  0.8348679671711762  1.0000
  H   H1874     1.0  0.8485450819480316  0.275308365644543  0.8353975790533287  1.0000
  H   H1875     1.0  0.8652225672900496  0.241720261280944  0.8698048916608538  1.0000
  H   H1876     1.0  0.8702563356709254  0.27208381470958704  0.879722019651927  1.0000
  C   C2379     1.0  0.8106988632260104  0.26468776114310566  0.6210046752502305  1.0000
  C   C2380     1.0  0.7975865215906703  0.26555785303574275  0.5952257683872072  1.0000
  H   H1877     1.0  0.8168544283315795  0.2829605502660691  0.6318120555955881  1.0000
  H   H1878     1.0  0.8296410595629009  0.2647710121447591  0.616172597315926  1.0000
  H   H1879     1.0  0.8086498781427771  0.28616416922580834  0.5859271029163914  1.0000
  H   H1880     1.0  0.7776017798014345  0.26268065449223593  0.5982769536188896  1.0000
  C   C2381     1.0  0.4050785586069622  0.23329142017486437  0.9976256524346828  1.0000
  C   C2382     1.0  0.421361336345579  0.25488058585308004  0.5183231951844398  1.0000
  H   H1881     1.0  0.3960322545546733  0.24212611817651358  0.98482184869034  1.0000
  H   H1882     1.0  0.3879862576436636  0.2164410622518787  0.5078066163816999  1.0000
  H   H1883     1.0  0.40631005859938724  0.25429943373204905  0.5316354830939015  1.0000
  H   H1884     1.0  0.4338971088989759  0.2498662189062788  0.529904641624098  1.0000
  C   C2383     1.0  0.38054931476762227  0.08172104834584322  0.9282329160808727  1.0000
  C   C2384     1.0  0.3937932610136839  0.06575903068945813  0.9205215342803023  1.0000
  H   H1885     1.0  0.3711849024761406  0.07524832403235486  0.9472019453251431  1.0000
  H   H1886     1.0  0.3648675633761389  0.07763743093644719  0.91395667490593  1.0000
  H   H1887     1.0  0.40938443915805656  0.06954405153532171  0.9343263626810211  1.0000
  H   H1888     1.0  0.405585903034868  0.0739774318803562  0.9024604111197215  1.0000
  C   C2385     1.0  0.5081512240051437  0.0932042408607808  0.5180593592284958  1.0000
  C   C2386     1.0  0.47792179335459006  0.0827265854167584  0.5144839940314012  1.0000
  H   H1889     1.0  0.5133416069874762  0.08075297482744222  0.5059112654334843  1.0000
  H   H1890     1.0  0.5117489512741051  0.09116366908838588  0.5391581057877558  1.0000
  H   H1891     1.0  0.47033205598057354  0.09447300841963238  0.5261211176176447  1.0000
  H   H1892     1.0  0.47371655054573325  0.08419860619065764  0.9942151847100534  1.0000
  C   C2387     1.0  0.6800895183919453  0.24725721771420747  0.9273288899377112  1.0000
  C   C2388     1.0  0.6531923630885615  0.22619757316733194  0.9156405690953376  1.0000
  H   H1893     1.0  0.6775677261790332  0.2515008981732981  0.9471728457711787  1.0000
  H   H1894     1.0  0.6871130018893828  0.26642122935498286  0.9169733286669076  1.0000
  H   H1895     1.0  0.6519204552464973  0.20664544645415264  0.9145464258662757  1.0000
  H   H1896     1.0  0.6525358612402141  0.23229561351942207  0.8956123160867623  1.0000
  C   C2389     1.0  0.41407040193687983  0.21830276106592567  0.6488946577548587  1.0000
  C   C2390     1.0  0.4176884069418151  0.24618665539698878  0.6429311891624179  1.0000
  H   H1897     1.0  0.40150984933761086  0.2092013286293503  0.6659167328418836  1.0000
  H   H1898     1.0  0.40213876598045983  0.20521317180213405  0.6328897090774037  1.0000
  H   H1899     1.0  0.3988581336213719  0.24403625216295283  0.6369523948048891  1.0000
  H   H1900     1.0  0.4309424501835308  0.2552371372363769  0.6256293703632817  1.0000
  C   C2391     1.0  0.4622045862425091  0.08501485953109013  0.6483241125001299  1.0000
  C   C2392     1.0  0.4562273207345169  0.07135528554386375  0.67505670874508  1.0000
  H   H1901     1.0  0.444022213225275  0.07563469130113108  0.6370286356362758  1.0000
  H   H1902     1.0  0.47465080687062605  0.07975929543274117  0.6358700853944391  1.0000
  H   H1903     1.0  0.4744253151906766  0.07571962152922233  0.685044257656747  1.0000
  H   H1904     1.0  0.44766346268783835  0.08060582434948356  0.6878537225934981  1.0000
  C   C2393     1.0  0.48150155542693457  0.054950799085545565  0.7831192603711233  1.0000
  C   C2394     1.0  0.4695504113541028  0.07119579369618363  0.7738112830430389  1.0000
  H   H1905     1.0  0.49623488985219033  0.06591455045335472  0.7985672435856996  1.0000
  H   H1906     1.0  0.49368834424217567  0.053920800263327365  0.7672425437281382  1.0000
  H   H1907     1.0  0.45459653378463044  0.06991774302771128  0.7877984686486016  1.0000
  H   H1908     1.0  0.4570816660916431  0.060873925082922005  0.7560566751842167  1.0000
  C   C2395     1.0  0.5271664488456571  0.2608825652620987  0.8194549034213574  1.0000
  C   C2396     1.0  0.534215501530729  0.26111581035185055  0.8481548235113284  1.0000
  H   H1909     1.0  0.5064192651638326  0.25718544439636165  0.817633271343185  1.0000
  H   H1910     1.0  0.5408752759969573  0.2813036956606712  0.8119452785282736  1.0000
  H   H1911     1.0  0.5454140199705623  0.28187849797311604  0.8554297120024326  1.0000
  H   H1912     1.0  0.5483505813067717  0.2536674044420296  0.8502247717833308  1.0000
  C   C2397     1.0  0.5967191680979212  0.2780745752640837  0.5889641263651444  1.0000
  C   C2398     1.0  0.5884082273589902  0.28686625064600635  0.564048894263785  1.0000
  H   H1913     1.0  0.6083965619633459  0.2958851566793541  0.6002663931249235  1.0000
  H   H1914     1.0  0.6099613814014934  0.2703971768503782  0.5840744313139903  1.0000
  H   H1915     1.0  0.5720569620303029  0.2907129884653895  0.5683447644170385  1.0000
  H   H1916     1.0  0.6061428010721248  0.3068747745242212  0.5577358430297182  1.0000
  C   C2399     1.0  0.6433507258565104  0.18974171521360705  0.7389616572152545  1.0000
  C   C2400     1.0  0.6414848164455891  0.1634490328244763  0.7306585844840744  1.0000
  H   H1917     1.0  0.6535412381171932  0.20365978776158802  0.7220586963024576  1.0000
  H   H1918     1.0  0.6561793300352424  0.19870858468728375  0.7557230002987582  1.0000
  H   H1919     1.0  0.6258519948325973  0.1531777828422036  0.7152920800205987  1.0000
  H   H1920     1.0  0.6344261710967196  0.14879452395337844  0.7473229290543633  1.0000
