data_image0
_chemical_formula_structural       C6H4C38H24C6H4C38H24C6H4C38H24C6H4C38H24C6H4C38H24C6H4C38H24C6H4C38H24C6H4C38H24C6H4C38H24C6H4C38H24C6H4C38H24C6H4C38H24C2H4C2H4C2H4C2H4C2H4C2H4C2H4C2H4C2H4C2H4C2H4C2H4C2H4C2H4C2H4C2H4C2H4C2H4C2H4C2H4C2H4C2H4C2H4C2H4C2H4C2H4C2H4C2H4C2H4C2H4C2H4C2H4C2H4C2H4C2H4C2H4C6H4C38H24C6H4C38H24C6H4C38H24C6H4C38H24C6H4C38H24C6H4C38H24C6H4C38H24C6H4C38H24C6H4C38H24C6H4C38H24C6H4C38H24C6H4C38H24C2H4C2H4C2H4C2H4C2H4C2H4C2H4C2H4C2H4C2H4C2H4C2H4C2H4C2H4C2H4C2H4C2H4C2H4C2H4C2H4C2H4C2H4C2H4C2H4C2H4C2H4C2H4C2H4C2H4C2H4C2H4C2H4C2H4C2H4C2H4C2H4
_chemical_formula_sum              "C1200 H960"
_cell_length_a       40.65752620781389
_cell_length_b       40.34438665863193
_cell_length_c       55.888660891343235
_cell_angle_alpha    91.14409999965123
_cell_angle_beta     88.31559999931272
_cell_angle_gamma    120.12700000039094

_space_group_name_H-M_alt    "P 1"
_space_group_IT_number       1

loop_
  _space_group_symop_operation_xyz
  'x, y, z'

loop_
  _atom_site_type_symbol
  _atom_site_label
  _atom_site_symmetry_multiplicity
  _atom_site_fract_x
  _atom_site_fract_y
  _atom_site_fract_z
  _atom_site_occupancy
  C   C1        1.0  0.259090899622697  0.806649260142877  0.2505124293282696  1.0000
  C   C2        1.0  0.22693657098319633  0.8099820938906643  0.2534732179102765  1.0000
  C   C3        1.0  0.2003175061058056  0.7900629214634632  0.2713757853883002  1.0000
  C   C4        1.0  0.2056238478604528  0.7660679574987231  0.2868366868289252  1.0000
  C   C5        1.0  0.23986702906552151  0.7661529905637583  0.284364589469946  1.0000
  C   C6        1.0  0.2654084566511469  0.7842708891017883  0.2657066091856303  1.0000
  H   H1        1.0  0.22124101436757995  0.8268889219376967  0.24146537643016625  1.0000
  H   H2        1.0  0.17528486557093872  0.7930661371103004  0.2725500763857588  1.0000
  H   H3        1.0  0.24658030267584644  0.7507336864332635  0.29728179044199066  1.0000
  H   H4        1.0  0.29062383532162994  0.7823664439254893  0.26465404347449367  1.0000
  C   C7        1.0  0.1691344787912893  0.6783080521136744  0.28851398967133174  1.0000
  C   C8        1.0  0.15966876197254343  0.6960414197095346  0.3069070384501232  1.0000
  C   C9        1.0  0.1376108829558816  0.6725340732673009  0.32597494653690534  1.0000
  C   C10       1.0  0.12804439470901052  0.6343505835302929  0.3268878861843198  1.0000
  C   C11       1.0  0.14009924946449195  0.6187099011190966  0.3091571661693389  1.0000
  C   C12       1.0  0.15984721571573218  0.6406567544389692  0.28963636841432955  1.0000
  C   C13       1.0  0.17469277671695738  0.7417372883681256  0.30789516136261885  1.0000
  C   C14       1.0  0.13463944649956622  0.7405365928999049  0.30612119432225066  1.0000
  C   C15       1.0  0.11529176651552363  0.7432963122632293  0.32659968366817527  1.0000
  C   C16       1.0  0.07751644155862102  0.7304901461809978  0.32700245115968163  1.0000
  C   C17       1.0  0.05815081834618414  0.7181625041447175  0.30632347310687397  1.0000
  C   C18       1.0  0.07644313549480856  0.7183187469324649  0.2851056816543177  1.0000
  C   C19       1.0  0.1140051743656969  0.7280278849416912  0.2850913610323975  1.0000
  C   C20       1.0  0.2082031006010823  0.746663483332995  0.3479588912621937  1.0000
  C   C21       1.0  0.21947470273194153  0.7629300413750342  0.3702596797474671  1.0000
  C   C22       1.0  0.22777864066984393  0.8003440963155085  0.37543479449388906  1.0000
  C   C23       1.0  0.22015868881304806  0.8187492391666104  0.35773629587822864  1.0000
  C   C24       1.0  0.20562520912445892  0.8014099507857942  0.3359331490046832  1.0000
  C   C25       1.0  0.19740250267606402  0.7637525004323827  0.3313720309230909  1.0000
  C   C26       1.0  0.24339901541236714  0.8197486178541645  0.4009935244660141  1.0000
  C   C27       1.0  0.13486304283222839  0.7713920386638657  0.43994740616677136  1.0000
  C   C28       1.0  0.156804379272618  0.7544018605032341  0.4418377282602413  1.0000
  C   C29       1.0  0.19251626111607006  0.7707192621856794  0.43081621961488664  1.0000
  C   C30       1.0  0.20568563650766097  0.8032839034917565  0.41694132705192677  1.0000
  C   C31       1.0  0.18232718941337195  0.8189373331948993  0.4152139020327994  1.0000
  C   C32       1.0  0.14845327710418632  0.8041769743180888  0.426924590608065  1.0000
  C   C33       1.0  0.2692828638578577  0.86418647624285  0.39694257854032994  1.0000
  C   C34       1.0  0.3001915355913329  0.8782666478500535  0.3806761421166921  1.0000
  C   C35       1.0  0.32458063160661127  0.9163396060503152  0.37721950200069737  1.0000
  C   C36       1.0  0.3212465341877841  0.9423757089004622  0.3912179099277192  1.0000
  C   C37       1.0  0.2926116918216306  0.9294521510974448  0.40855123268441385  1.0000
  C   C38       1.0  0.26706575705835095  0.8911609205672507  0.41136523489173843  1.0000
  C   C39       1.0  0.28664481177009266  0.8268875953618264  0.4360521970044696  1.0000
  C   C40       1.0  0.3110300926747756  0.8196162966765398  0.4484359548099859  1.0000
  C   C41       1.0  0.3208756109425796  0.7935176479749385  0.4395356882865648  1.0000
  C   C42       1.0  0.31129351656966797  0.7802305974541265  0.4162503570442758  1.0000
  C   C43       1.0  0.29085806113095575  0.7922131494737171  0.4029661901355253  1.0000
  C   C44       1.0  0.2745592527149291  0.8122930621633225  0.41328956846226894  1.0000
  H   H5        1.0  0.1862702727595659  0.6952197861239069  0.27345227556673307  1.0000
  H   H6        1.0  0.12801873058080995  0.683765628394968  0.34057661066231676  1.0000
  H   H7        1.0  0.11275633508391092  0.6164398284596736  0.34177059251491565  1.0000
  H   H8        1.0  0.16806054185029343  0.6286504809792872  0.2743419442035272  1.0000
  H   H9        1.0  0.12979908679567476  0.753163530619473  0.3429592041342945  1.0000
  H   H10       1.0  0.06267142819748411  0.7290874518574656  0.34408158287729224  1.0000
  H   H11       1.0  0.059423412037673595  0.7056625941612976  0.26958212749279176  1.0000
  H   H12       1.0  0.12638333567249438  0.7225635162737323  0.2691328179800447  1.0000
  H   H13       1.0  0.20594873729570795  0.7190554745265354  0.3450893966449282  1.0000
  H   H14       1.0  0.22156184829362952  0.745301483121268  0.38379803769530163  1.0000
  H   H15       1.0  0.225419799739908  0.8479785385946808  0.3605288171526729  1.0000
  H   H16       1.0  0.2003176212018239  0.8171800526947259  0.3228405204141157  1.0000
  H   H17       1.0  0.145144184495065  0.727018507711799  0.4509581743456858  1.0000
  H   H18       1.0  0.2066453343842517  0.7547620075295729  0.43253827440079395  1.0000
  H   H19       1.0  0.1891840088539168  0.8418663567576508  0.402438117202217  1.0000
  H   H20       1.0  0.1306161504790819  0.8163698634983478  0.42325672131874686  1.0000
  H   H21       1.0  0.3044403070500811  0.8582853927292285  0.3698855534998012  1.0000
  H   H22       1.0  0.3474947751288895  0.9259408328675268  0.3642468086187118  1.0000
  H   H23       1.0  0.2901757913575769  0.9496424163770619  0.420806104892648  1.0000
  H   H24       1.0  0.24717049301271085  0.8829705104711741  0.42650392233915835  1.0000
  H   H25       1.0  0.27715951762540203  0.8447504850302402  0.4453015286871962  1.0000
  H   H26       1.0  0.3174833642722827  0.8292467417674421  0.4663922246202104  1.0000
  H   H27       1.0  0.32009214111843415  0.7607815020147656  0.4092278820701446  1.0000
  H   H28       1.0  0.28548771767503045  0.7826324565812752  0.3848201720848578  1.0000
  C   C45       1.0  0.8120409718797681  0.616428804265061  0.17261970257977133  1.0000
  C   C46       1.0  0.809641111839104  0.648052169247938  0.17909190765661787  1.0000
  C   C47       1.0  0.7884775428681531  0.6472289753905663  0.19860912525614716  1.0000
  C   C48       1.0  0.7662836995740393  0.6137318563112708  0.21147978420695107  1.0000
  C   C49       1.0  0.767427831028177  0.5812182848321384  0.20392923629951146  1.0000
  C   C50       1.0  0.7900119642835552  0.5828651888028799  0.18483626712436887  1.0000
  H   H29       1.0  0.826100199165621  0.6743305741198515  0.1698035522791587  1.0000
  H   H30       1.0  0.7891323091196061  0.673236427190884  0.20489050804590667  1.0000
  H   H31       1.0  0.7523128155226171  0.554697760762379  0.21337010630042105  1.0000
  H   H32       1.0  0.7888577128878692  0.5564185442239437  0.17996367551601167  1.0000
  C   C51       1.0  0.6802351462026957  0.5609242015806479  0.21238556354340543  1.0000
  C   C52       1.0  0.697879781089778  0.5752457471950304  0.2338843972011461  1.0000
  C   C53       1.0  0.6769277746031358  0.5569320808228557  0.2545275736991532  1.0000
  C   C54       1.0  0.6424190912543772  0.5244658199311567  0.2527679272807053  1.0000
  C   C55       1.0  0.627111966067173  0.5091797982045151  0.23110619654862202  1.0000
  C   C56       1.0  0.6451408424096624  0.5290292859239716  0.21073511186709926  1.0000
  C   C57       1.0  0.7400020512314298  0.6118391741666076  0.23450197402145587  1.0000
  C   C58       1.0  0.7272567244447388  0.6431941890179221  0.23840971372793782  1.0000
  C   C59       1.0  0.7216189387122024  0.6546157462733365  0.2611150597824576  1.0000
  C   C60       1.0  0.7125827237137523  0.6831258548873079  0.26392011160108203  1.0000
  C   C61       1.0  0.7043187082474128  0.6975458316975371  0.24455863076493523  1.0000
  C   C62       1.0  0.7070762884926847  0.6845993723873042  0.22241536912078436  1.0000
  C   C63       1.0  0.7174954299113183  0.657238736963714  0.2196407486237404  1.0000
  C   C64       1.0  0.7618104775720931  0.5830791400484703  0.2687390008772384  1.0000
  C   C65       1.0  0.7825981873925002  0.5880962991773586  0.2888379937422768  1.0000
  C   C66       1.0  0.8110352738463689  0.6241747758175399  0.2954845523910022  1.0000
  C   C67       1.0  0.8189047581460774  0.654614686786169  0.2805964758271863  1.0000
  C   C68       1.0  0.7976586256550515  0.649129682071318  0.2607194526019113  1.0000
  C   C69       1.0  0.7673329703823767  0.613593435393348  0.2550252153108811  1.0000
  C   C70       1.0  0.8327649122935921  0.6324604751562839  0.3198994226872491  1.0000
  C   C71       1.0  0.777655093310168  0.6912884289134059  0.3536495483977439  1.0000
  C   C72       1.0  0.758100930861216  0.6525322468079902  0.3510485654414826  1.0000
  C   C73       1.0  0.7759166847673472  0.634621211094575  0.34037433187769356  1.0000
  C   C74       1.0  0.8143029326003367  0.6543586074848734  0.33362394872004647  1.0000
  C   C75       1.0  0.8332745954910528  0.6940479555894534  0.3370036154932201  1.0000
  C   C76       1.0  0.8151042312236549  0.7121261826749494  0.3468884247736567  1.0000
  C   C77       1.0  0.877816281084395  0.6567876906681567  0.3171838747556261  1.0000
  C   C78       1.0  0.8969048044047361  0.6625365582281588  0.29552572417902284  1.0000
  C   C79       1.0  0.9354487277784708  0.6859882233434925  0.2926562295617574  1.0000
  C   C80       1.0  0.9566131317599523  0.7030399359869723  0.31316873038474247  1.0000
  C   C81       1.0  0.9391204366277954  0.6959678742526116  0.33520637744223164  1.0000
  C   C82       1.0  0.9000322982596067  0.6740385503631346  0.3369517032387593  1.0000
  C   C83       1.0  0.8371638926699513  0.5697026892302642  0.32168234011631736  1.0000
  C   C84       1.0  0.8336364825702813  0.5389097062353022  0.3338387580488499  1.0000
  C   C85       1.0  0.8202427030867062  0.5310207039798212  0.3573406886976824  1.0000
  C   C86       1.0  0.8124069153791075  0.5568044662372501  0.3683550370320769  1.0000
  C   C87       1.0  0.8176331708845097  0.5891774386545633  0.35718674201203987  1.0000
  C   C88       1.0  0.8283586642441323  0.5955748821440764  0.33324803239464057  1.0000
  H   H33       1.0  0.69326625487381  0.5759725385054015  0.1957736421159422  1.0000
  H   H34       1.0  0.6892210344853223  0.5671233005627891  0.2720918164843115  1.0000
  H   H35       1.0  0.6285345884190562  0.5093727538055016  0.26949620376127037  1.0000
  H   H36       1.0  0.6319658338268669  0.5178257074140019  0.19368820154880917  1.0000
  H   H37       1.0  0.7279535683381761  0.6443022141768464  0.2771881678101723  1.0000
  H   H38       1.0  0.7127426204204088  0.6947885210584338  0.28191576312158717  1.0000
  H   H39       1.0  0.6993331673589442  0.693928512265701  0.2067879904503367  1.0000
  H   H40       1.0  0.718145760948316  0.6480792797581071  0.2014911504175928  1.0000
  H   H41       1.0  0.7392907661846085  0.5546903061662757  0.2639505429226625  1.0000
  H   H42       1.0  0.7742084480136642  0.56222999225303  0.29895730320665725  1.0000
  H   H43       1.0  0.84019933647176  0.6832875240217374  0.2851182121984979  1.0000
  H   H44       1.0  0.803584860937394  0.6731735343372013  0.25002552818298185  1.0000
  H   H45       1.0  0.7279957289082956  0.6360104368536496  0.3548489004835629  1.0000
  H   H46       1.0  0.7588067788694035  0.6047996376788596  0.3353048317179331  1.0000
  H   H47       1.0  0.8621972313289119  0.7119856223316645  0.33025144225783315  1.0000
  H   H48       1.0  0.8317189632127864  0.7433496987313921  0.34904904860587094  1.0000
  H   H49       1.0  0.8816437763851972  0.6492960040605079  0.27943113521842783  1.0000
  H   H50       1.0  0.9487309571993644  0.6895171504646902  0.27496489125705703  1.0000
  H   H51       1.0  0.9549442892368494  0.7059224110793282  0.3514083710672284  1.0000
  H   H52       1.0  0.8875190510368587  0.6675089918309336  0.35462693084379937  1.0000
  H   H53       1.0  0.8480843991955538  0.5747547586835035  0.30354348237660994  1.0000
  H   H54       1.0  0.8432859548073531  0.5213940054264042  0.32433702540477943  1.0000
  H   H55       1.0  0.8032664857910565  0.5522526189470219  0.3869539447509716  1.0000
  H   H56       1.0  0.8128396742552848  0.6079779450363262  0.3685662662054003  1.0000
  C   C89       1.0  0.6528818422623186  0.8460925768160238  0.08147467230629503  1.0000
  C   C90       1.0  0.6761967491883518  0.8852357089837904  0.08141130355429804  1.0000
  C   C91       1.0  0.6783926286412267  0.90665691350326  0.1012442908671683  1.0000
  C   C92       1.0  0.6571030757546055  0.8899980405837444  0.12171866303429073  1.0000
  C   C93       1.0  0.6300860266459997  0.8511152366317201  0.12054723616121615  1.0000
  C   C94       1.0  0.6284313546465669  0.8295500377971016  0.10064121367655274  1.0000
  H   H57       1.0  0.6938274725327033  0.900180753403643  0.06597385213206741  1.0000
  H   H58       1.0  0.6979796927380449  0.9374556117560138  0.10006910483083968  1.0000
  H   H59       1.0  0.6115876759366614  0.8359544991754306  0.13501553949499542  1.0000
  H   H60       1.0  0.6076652108302334  0.7994676972588329  0.10061991175144641  1.0000
  C   C95       1.0  0.5967197667268311  0.9102990986969541  0.14930823620247793  1.0000
  C   C96       1.0  0.634435881323783  0.9302140637269315  0.14076544820374054  1.0000
  C   C97       1.0  0.6453496455699695  0.9632600332568343  0.1274714358674199  1.0000
  C   C98       1.0  0.6204512648204474  0.9764818629388088  0.12411325002712664  1.0000
  C   C99       1.0  0.5837784589023205  0.9568642162626617  0.13317480255492428  1.0000
  C   C100      1.0  0.572659609047336  0.9241763858409255  0.14586645373172538  1.0000
  C   C101      1.0  0.6635307660731912  0.9151975210274398  0.14493829842352066  1.0000
  C   C102      1.0  0.707898869096384  0.9461045666495502  0.1484552641593544  1.0000
  C   C103      1.0  0.7201231248275869  0.9812045559171062  0.1591275286376295  1.0000
  C   C104      1.0  0.7566282485653597  0.0038677390922186024  0.16720042122960946  1.0000
  C   C105      1.0  0.7833290204186338  0.99338353610559  0.16203354084079155  1.0000
  C   C106      1.0  0.7730729865405835  0.9599673271292795  0.1494455351651381  1.0000
  C   C107      1.0  0.7356852385577887  0.936281173424412  0.14375917421616397  1.0000
  C   C108      1.0  0.6505845512768148  0.915390847772473  0.19019396980027378  1.0000
  C   C109      1.0  0.651278346174529  0.904866248268836  0.21290110593253356  1.0000
  C   C110      1.0  0.6600302623407797  0.8768373050025425  0.21748728510248627  1.0000
  C   C111      1.0  0.6622312031994289  0.8557427092058987  0.1982385791639612  1.0000
  C   C112      1.0  0.6605851097021677  0.8656199958057827  0.17556813962537204  1.0000
  C   C113      1.0  0.6556109273283731  0.8962338645565767  0.17068391251170464  1.0000
  C   C114      1.0  0.6741046508987965  0.8756511571848528  0.24363853080656067  1.0000
  C   C115      1.0  0.768538951147607  0.9902671071335447  0.2592587491660482  1.0000
  C   C116      1.0  0.7493040160783982  0.9650827493851755  0.27738149620609537  1.0000
  C   C117      1.0  0.7206639896297002  0.9281732625368678  0.27222607231481366  1.0000
  C   C118      1.0  0.7103887209134514  0.9161127675775155  0.2489407410725247  1.0000
  C   C119      1.0  0.7339151837753178  0.9410949681080442  0.23095403994071959  1.0000
  C   C120      1.0  0.7617296111647737  0.9774660677687496  0.2361488455422819  1.0000
  C   C121      1.0  0.6886203555589079  0.8466102322947436  0.24848427124881745  1.0000
  C   C122      1.0  0.6773746796870572  0.824873405721541  0.26927781427698694  1.0000
  C   C123      1.0  0.6881493770311309  0.7989478726739776  0.2732625273262901  1.0000
  C   C124      1.0  0.7125179483293463  0.7953153652179248  0.25766557997742295  1.0000
  C   C125      1.0  0.7268161114318302  0.8190112942503297  0.23794608359327046  1.0000
  C   C126      1.0  0.7156302843633489  0.8446651796307042  0.23372687036002363  1.0000
  C   C127      1.0  0.6024451996385144  0.8273666360898911  0.25235799947823884  1.0000
  C   C128      1.0  0.5690678265488605  0.8125229082727906  0.2655258113338875  1.0000
  C   C129      1.0  0.565999747467596  0.8327695400162852  0.28450958576688834  1.0000
  C   C130      1.0  0.5971446081675305  0.8687065064308901  0.2895593950715083  1.0000
  C   C131      1.0  0.6297966078517881  0.8830678665753088  0.2762967090956382  1.0000
  C   C132      1.0  0.6341180858266479  0.862267902689316  0.25788217938396635  1.0000
  H   H61       1.0  0.5861915601123454  0.8825310991060007  0.157769575664044  1.0000
  H   H62       1.0  0.6728699595159578  0.9785847805533956  0.1196018961067072  1.0000
  H   H63       1.0  0.6289699943794841  0.0012277553083936965  0.1128176804797737  1.0000
  H   H64       1.0  0.544258135858921  0.9086871766691945  0.15302712270738683  1.0000
  H   H65       1.0  0.6997917196217356  0.9899320659825946  0.16311045160919263  1.0000
  H   H66       1.0  0.7642656804468997  0.02989275607960332  0.17711512480830455  1.0000
  H   H67       1.0  0.7956234848302873  0.9533840940619531  0.14553206720988804  1.0000
  H   H68       1.0  0.7267785320892122  0.9079658572304343  0.13679004355868554  1.0000
  H   H69       1.0  0.647981119346598  0.9401113354815707  0.18784359772761655  1.0000
  H   H70       1.0  0.6491403478899382  0.9219730692901147  0.22695142611401625  1.0000
  H   H71       1.0  0.6674060297614385  0.8320971558628583  0.20121010821240834  1.0000
  H   H72       1.0  0.6638417663257329  0.8498295676222085  0.1610275171508956  1.0000
  H   H73       1.0  0.7561682927251493  0.9745371434564939  0.29580318622872726  1.0000
  H   H74       1.0  0.7048542883442361  0.9093595781128025  0.28708729771252917  1.0000
  H   H75       1.0  0.7305827184763647  0.9340630225834173  0.21232470090024447  1.0000
  H   H76       1.0  0.7771244977791945  0.9966667947003259  0.2218980366539162  1.0000
  H   H77       1.0  0.6609164669795233  0.8297222772698275  0.28263179421759854  1.0000
  H   H78       1.0  0.6774365874420796  0.7821618794213689  0.28917810851288217  1.0000
  H   H79       1.0  0.745198010828354  0.8156220257885942  0.22498413067772507  1.0000
  H   H80       1.0  0.7276293878891336  0.8631170605728347  0.21819794596527753  1.0000
  H   H81       1.0  0.6044505876848024  0.8086477297386442  0.23874445826532306  1.0000
  H   H82       1.0  0.5464276830839581  0.785295447805117  0.259625715102754  1.0000
  H   H83       1.0  0.5956049720548233  0.8854017555813537  0.3049111017699916  1.0000
  H   H84       1.0  0.6509837304551578  0.911244500306877  0.2816651522379832  1.0000
  C   C133      1.0  0.6572000902042381  0.8067249484097805  0.018212071919274587  1.0000
  C   C134      1.0  0.6928372986964506  0.8151792624899606  0.009798029660418206  1.0000
  C   C135      1.0  0.6960548865303612  0.7948923023836731  0.49079277429453705  1.0000
  C   C136      1.0  0.6648638657546567  0.7636961578546543  0.4810780223994031  1.0000
  C   C137      1.0  0.62961344390455  0.7560900441570011  0.4899496476789837  1.0000
  C   C138      1.0  0.6255251560569449  0.777421312588077  0.007888016711807944  1.0000
  H   H85       1.0  0.7188189694787172  0.838388084281785  0.016930286753527275  1.0000
  H   H86       1.0  0.7245373216996178  0.8030266953614349  0.4843968265294157  1.0000
  H   H87       1.0  0.6043750128167296  0.7333679641312952  0.482900321538752  1.0000
  H   H88       1.0  0.5971328378398628  0.7704492503564554  0.014290656018858847  1.0000
  C   C139      1.0  0.6305874702926747  0.6776923631321561  0.4850663156041863  1.0000
  C   C140      1.0  0.6408073865603086  0.6947030959881576  0.4624486833589279  1.0000
  C   C141      1.0  0.6272126144950755  0.6700776926117563  0.44258956091105317  1.0000
  C   C142      1.0  0.601994960092811  0.632235097069843  0.44556646019272034  1.0000
  C   C143      1.0  0.5896002473988556  0.6168552718377288  0.4682127336818192  1.0000
  C   C144      1.0  0.6056578276675739  0.6400370428573504  0.4878498864899304  1.0000
  C   C145      1.0  0.6683504605048741  0.7390722711583448  0.459298146536478  1.0000
  C   C146      1.0  0.707612440798349  0.7404866294270879  0.4550037500381499  1.0000
  C   C147      1.0  0.7233089331567955  0.741029751966031  0.4320048312342655  1.0000
  C   C148      1.0  0.7566416194776441  0.7403452970830937  0.42878806153543453  1.0000
  C   C149      1.0  0.773988224562449  0.736586783032316  0.44852366861924725  1.0000
  C   C150      1.0  0.7603127958998963  0.7374650863060027  0.4712254345182869  1.0000
  C   C151      1.0  0.727982605626681  0.7395179169639137  0.47429004760921545  1.0000
  C   C152      1.0  0.6259903739763585  0.7431667157093977  0.42567690642326517  1.0000
  C   C153      1.0  0.624273915281665  0.7567416185361284  0.40338148817121194  1.0000
  C   C154      1.0  0.6539219303359386  0.790089549270113  0.3943523360505089  1.0000
  C   C155      1.0  0.6850113629204172  0.8104354036493099  0.40906856515128204  1.0000
  C   C156      1.0  0.6882852277286716  0.7962655664668504  0.43059245989738315  1.0000
  C   C157      1.0  0.6592908636541082  0.7605416811427301  0.438411519465827  1.0000
  C   C158      1.0  0.6550508498709935  0.7994676732873511  0.3659885542597594  1.0000
  C   C159      1.0  0.7149244972585189  0.7384131960884234  0.34739680685182484  1.0000
  C   C160      1.0  0.6761579509037512  0.7200611146721863  0.3459540041933619  1.0000
  C   C161      1.0  0.6568624473233126  0.7393450274165626  0.35100560357572197  1.0000
  C   C162      1.0  0.6767172841106442  0.7778245268209312  0.3573030970651418  1.0000
  C   C163      1.0  0.7160276640028999  0.7958022731846462  0.358264368811537  1.0000
  C   C164      1.0  0.7347711024449334  0.776576384691197  0.35328616261651813  1.0000
  C   C165      1.0  0.6757517359242229  0.8441533075825434  0.36088683270067856  1.0000
  C   C166      1.0  0.6673199409710454  0.8659760146613772  0.3762976119645828  1.0000
  C   C167      1.0  0.6833470894046652  0.9043059835913243  0.3733404035380559  1.0000
  C   C168      1.0  0.7079934701600916  0.9217458918836059  0.3539162699810081  1.0000
  C   C169      1.0  0.713885462653695  0.899558181052218  0.3372094744333234  1.0000
  C   C170      1.0  0.6975752597704566  0.8609787018704038  0.34044414490955455  1.0000
  C   C171      1.0  0.6123885072747305  0.7771147708136473  0.3280156351605377  1.0000
  C   C172      1.0  0.5818261986500719  0.7730528960595237  0.3157357018639431  1.0000
  C   C173      1.0  0.5554855946960668  0.7787864500130437  0.3275179935488098  1.0000
  C   C174      1.0  0.5569364531641376  0.7838204177258772  0.35202952804301824  1.0000
  C   C175      1.0  0.5874103298977649  0.7877626350592255  0.36408570162210924  1.0000
  C   C176      1.0  0.6165125643334841  0.7859362304445364  0.35211903193001964  1.0000
  H   H89       1.0  0.6429947708663392  0.6935208209026742  0.0008744921263768024  1.0000
  H   H90       1.0  0.6350322989661865  0.680245566753001  0.42449008488162643  1.0000
  H   H91       1.0  0.5908154697885102  0.6155104265997199  0.42983883716883114  1.0000
  H   H92       1.0  0.5985723082834815  0.6279883472249266  0.0055627057275110525  1.0000
  H   H93       1.0  0.7089898250556376  0.742841594710315  0.41634165100901727  1.0000
  H   H94       1.0  0.7664547930188288  0.7386234795916852  0.4104379746224037  1.0000
  H   H95       1.0  0.7733686440893319  0.7332687729976742  0.4868742941216149  1.0000
  H   H96       1.0  0.7166224966388399  0.7362747621058643  0.4924915580698238  1.0000
  H   H97       1.0  0.6017589000487017  0.7167739227003637  0.43142842620197636  1.0000
  H   H98       1.0  0.5997570162773489  0.7387900674179765  0.39296323572424685  1.0000
  H   H99       1.0  0.7095577394962482  0.8366684467010078  0.402502560000858  1.0000
  H   H100      1.0  0.7140280284626254  0.8119328884281135  0.44009956277467377  1.0000
  H   H101      1.0  0.6595622086298712  0.6907440605643488  0.34119597756036657  1.0000
  H   H102      1.0  0.6254502377069677  0.723252976126388  0.3509357905438609  1.0000
  H   H103      1.0  0.7324202810573713  0.8253784576089597  0.3631477008863343  1.0000
  H   H104      1.0  0.7653113609039143  0.7918523484130571  0.35550227885867325  1.0000
  H   H105      1.0  0.6479616921827285  0.853069557935005  0.39124655117155965  1.0000
  H   H106      1.0  0.6770997364707408  0.9205303962422348  0.38682326907594955  1.0000
  H   H107      1.0  0.7325087275292314  0.9124479239139195  0.3220135044982226  1.0000
  H   H108      1.0  0.7014587557751724  0.8434166735893244  0.32673751965415737  1.0000
  H   H109      1.0  0.634786415316245  0.7749641189232813  0.3177871309540156  1.0000
  H   H110      1.0  0.5812566815044297  0.7680151529433944  0.2967698282083426  1.0000
  H   H111      1.0  0.5326612946633459  0.7827284446216104  0.36151694006516855  1.0000
  H   H112      1.0  0.590733752523989  0.7941666485834121  0.38297818209036866  1.0000
  C   C177      1.0  0.3076257170022245  0.41993389740623455  0.4136959161092553  1.0000
  C   C178      1.0  0.30627322434013643  0.38870954216416453  0.4239154699270773  1.0000
  C   C179      1.0  0.3273821359373294  0.3924367121498892  0.4433807752721456  1.0000
  C   C180      1.0  0.34976452448466167  0.42751538411873585  0.45421969598801754  1.0000
  C   C181      1.0  0.34871865630751997  0.4589564796989842  0.4450777689696926  1.0000
  C   C182      1.0  0.32853247321708906  0.4552597353714672  0.4246082300124683  1.0000
  H   H113      1.0  0.28993031286824195  0.36213586460317265  0.4150868065132573  1.0000
  H   H114      1.0  0.3269863101381901  0.36670505726427793  0.4496370969735449  1.0000
  H   H115      1.0  0.36507765700067624  0.486797522023691  0.453680882588269  1.0000
  H   H116      1.0  0.32989978268844045  0.4802340536711403  0.4173816861759738  1.0000
  C   C183      1.0  0.43476224374327  0.48511679831842286  0.4576942368814126  1.0000
  C   C184      1.0  0.4139961331152206  0.4709309873438597  0.47875092133736624  1.0000
  C   C185      1.0  0.43020046513775184  0.49062497626258944  0.49985951804778056  1.0000
  C   C186      1.0  0.46515655908933506  0.5240567663893844  0.00011012893138462321  1.0000
  C   C187      1.0  0.48406556560983116  0.5379738473274017  0.47882431452470736  1.0000
  C   C188      1.0  0.46908700885969584  0.5179054634143193  0.45811848530579924  1.0000
  C   C189      1.0  0.37269920254511096  0.4334569524137703  0.4780492108632751  1.0000
  C   C190      1.0  0.3847484030047735  0.40217450970357965  0.4837362878433452  1.0000
  C   C191      1.0  0.3837516415654955  0.3897120672901252  0.006809581028509704  1.0000
  C   C192      1.0  0.393591970285738  0.36301022328567395  0.011420749683713172  1.0000
  C   C193      1.0  0.4083121969661314  0.35002412427862734  0.49335437554051764  1.0000
  C   C194      1.0  0.41235935011261377  0.36419260119961455  0.4705022431113155  1.0000
  C   C195      1.0  0.4005491030366869  0.38979767571591384  0.4656797736796791  1.0000
  C   C196      1.0  0.344936389717717  0.4629970826637162  0.010494491857912893  1.0000
  C   C197      1.0  0.3216391134317026  0.45778438618752837  0.029805868418116294  1.0000
  C   C198      1.0  0.2922699387640989  0.4220477366194602  0.03600598167847855  1.0000
  C   C199      1.0  0.2854791989352606  0.39251001404763675  0.020561548953061816  1.0000
  C   C200      1.0  0.3106465969686817  0.39664017430035553  0.0032749863757548505  1.0000
  C   C201      1.0  0.34227044932670764  0.4321585223105243  0.4976165506395251  1.0000
  C   C202      1.0  0.2718627324430745  0.4124112479780535  0.06165224645209093  1.0000
  C   C203      1.0  0.3239613506012525  0.3506876997365761  0.09278975370101433  1.0000
  C   C204      1.0  0.34462793167843847  0.3887360981925341  0.08678923410866525  1.0000
  C   C205      1.0  0.32776446802059817  0.4073934531728349  0.07770136743808925  1.0000
  C   C206      1.0  0.28918422927641124  0.3878769207138817  0.0728957247372091  1.0000
  C   C207      1.0  0.26872556753083765  0.3485890559478659  0.07696528747138956  1.0000
  C   C208      1.0  0.2860548796963093  0.3308776725361894  0.08726772188857483  1.0000
  C   C209      1.0  0.22663318532776222  0.3912988430215852  0.05866585975840161  1.0000
  C   C210      1.0  0.21220081263563856  0.400476737455443  0.03924602238792988  1.0000
  C   C211      1.0  0.17381878056362304  0.38460513732614326  0.0364825003728741  1.0000
  C   C212      1.0  0.14853898507813687  0.36121739961093613  0.053394438829566085  1.0000
  C   C213      1.0  0.16216681698879615  0.3512824719697646  0.07246914921176033  1.0000
  C   C214      1.0  0.20056497765262993  0.36624741591358123  0.07541883931177908  1.0000
  C   C215      1.0  0.2843702226118987  0.44720700280019643  0.10344447541743716  1.0000
  C   C216      1.0  0.2906480611627315  0.47747764659597497  0.11792387723320458  1.0000
  C   C217      1.0  0.28895040523524507  0.5080247295015636  0.10909038060948663  1.0000
  C   C218      1.0  0.28222116715344275  0.5082646235660075  0.08466369580015555  1.0000
  C   C219      1.0  0.2760433745854194  0.4775695512715514  0.07045083655987835  1.0000
  C   C220      1.0  0.2796394481710813  0.4475269538976448  0.07899863677628781  1.0000
  H   H117      1.0  0.4237989025365338  0.470884155225919  0.44065448687408254  1.0000
  H   H118      1.0  0.41581597388221747  0.4794086712868028  0.01694652275862933  1.0000
  H   H119      1.0  0.4767201343778528  0.5389972696812823  0.016686066447455204  1.0000
  H   H120      1.0  0.4837080909732241  0.5294740960322513  0.4411431780971103  1.0000
  H   H121      1.0  0.3732347240042806  0.39936361465526454  0.021608565423204402  1.0000
  H   H122      1.0  0.3906214209464356  0.354213294265111  0.02963419996284758  1.0000
  H   H123      1.0  0.4228860841502392  0.35338368467987846  0.4563391480322111  1.0000
  H   H124      1.0  0.4032191193145024  0.40008035710244455  0.4478953513324973  1.0000
  H   H125      1.0  0.3673801687386497  0.4927787470817752  0.007571384412333574  1.0000
  H   H126      1.0  0.32943281421057824  0.4818257064316722  0.04111235743968346  1.0000
  H   H127      1.0  0.2631122878787533  0.3639707279156151  0.025123562073524102  1.0000
  H   H128      1.0  0.30723031214741076  0.3715133943414703  0.4932254899432355  1.0000
  H   H129      1.0  0.3744486029323823  0.4052980430714407  0.09070807229713534  1.0000
  H   H130      1.0  0.34613846078375393  0.4371785258085371  0.07305343058610558  1.0000
  H   H131      1.0  0.238721328627524  0.33011446178669457  0.07262828712284886  1.0000
  H   H132      1.0  0.2693775789721401  0.30041822242420996  0.09093004193689887  1.0000
  H   H133      1.0  0.23003178975027855  0.42183471246971926  0.025814532081175054  1.0000
  H   H134      1.0  0.16344404527518303  0.39149462264438883  0.020467927887258333  1.0000
  H   H135      1.0  0.1426637326160089  0.3299449945316942  0.08475856992037707  1.0000
  H   H136      1.0  0.21034532885723045  0.35911479386960893  0.09118369595266089  1.0000
  H   H137      1.0  0.2836270841533029  0.42297859039245744  0.11194143742602981  1.0000
  H   H138      1.0  0.29374027324162616  0.4749125804922537  0.13690174440966332  1.0000
  H   H139      1.0  0.27884431198551574  0.5301748949433979  0.07619555404317738  1.0000
  H   H140      1.0  0.26867591797208534  0.47794635870755203  0.052190969564945004  1.0000
  C   C221      1.0  0.8575259670171851  0.22791762565041204  0.003829910475163678  1.0000
  C   C222      1.0  0.8891862459603326  0.22727107282823858  0.010446037802308461  1.0000
  C   C223      1.0  0.9122764412071085  0.25176361303426065  0.027625195715213744  1.0000
  C   C224      1.0  0.901837485475837  0.27492238308209715  0.040516440560028004  1.0000
  C   C225      1.0  0.8671949077802136  0.2719110907409683  0.035923101079115234  1.0000
  C   C226      1.0  0.84573727289323  0.24942470538741865  0.017280676570360427  1.0000
  H   H141      1.0  0.8981998397566555  0.2090280655660678  0.0021347068553567716  1.0000
  H   H142      1.0  0.9376630547443057  0.2505704438286964  0.03298307739889264  1.0000
  H   H143      1.0  0.8568618392668327  0.2873405536562753  0.04569746256299212  1.0000
  H   H144      1.0  0.8192808509649208  0.2489983480937884  0.013518255374814008  1.0000
  C   C227      1.0  0.927606512758902  0.36033772337375103  0.04153338372413813  1.0000
  C   C228      1.0  0.9245797090930747  0.34123120702748777  0.06287093137750224  1.0000
  C   C229      1.0  0.9266323812175818  0.3607343294365047  0.08380087832946187  1.0000
  C   C230      1.0  0.9266039916457809  0.3946123505965929  0.0839653864737705  1.0000
  C   C231      1.0  0.9257721760493113  0.41101492135690815  0.06306497580452132  1.0000
  C   C232      1.0  0.9286030300858  0.3948798926718198  0.04162396165778357  1.0000
  C   C233      1.0  0.9263873036128167  0.3022433973579594  0.06180601412995937  1.0000
  C   C234      1.0  0.9710255697456167  0.32007749553531295  0.059761745350846975  1.0000
  C   C235      1.0  0.993310944925766  0.32819255203221653  0.07956233225662274  1.0000
  C   C236      1.0  0.03233276692336283  0.3464047704595243  0.07809482652534747  1.0000
  C   C237      1.0  0.0502174235868149  0.35726295111649015  0.056100499349166964  1.0000
  C   C238      1.0  0.029118764064998134  0.3497940365779254  0.03554825880035329  1.0000
  C   C239      1.0  0.9902893367410018  0.3313356550681289  0.03793675952887314  1.0000
  C   C240      1.0  0.8800563136849842  0.2702942985633056  0.09877183549264112  1.0000
  C   C241      1.0  0.8675329988258957  0.2460385709777234  0.11794553717385894  1.0000
  C   C242      1.0  0.8805519740264903  0.2209134118342086  0.12127311268479767  1.0000
  C   C243      1.0  0.9060351933637691  0.21999991101601965  0.10475087415210987  1.0000
  C   C244      1.0  0.9193191542761093  0.24521084937120963  0.08608644958793012  1.0000
  C   C245      1.0  0.9084169863828712  0.2727144673632207  0.0833972157990855  1.0000
  C   C246      1.0  0.8720952393884069  0.19786698251187534  0.1459317915692364  1.0000
  C   C247      1.0  0.9712585508170877  0.2917870633440094  0.18211892911500582  1.0000
  C   C248      1.0  0.9356112465755076  0.28802230606002466  0.18470380137160677  1.0000
  C   C249      1.0  0.9046057990880791  0.25786663639866425  0.1745046544400212  1.0000
  C   C250      1.0  0.9075877867859888  0.23095719689351019  0.1604034960507217  1.0000
  C   C251      1.0  0.9436257804675494  0.2353750656131838  0.157076457563105  1.0000
  C   C252      1.0  0.9745861305593668  0.2648304313322993  0.16832423203479926  1.0000
  C   C253      1.0  0.8723410909718882  0.15786838975156695  0.14433038802300702  1.0000
  C   C254      1.0  0.8527729474709953  0.131434829022907  0.12635711247425224  1.0000
  C   C255      1.0  0.845531599580436  0.09465516745534759  0.12791072094482284  1.0000
  C   C256      1.0  0.8586126910121856  0.08339366797493296  0.14677760330139983  1.0000
  C   C257      1.0  0.8804235302020406  0.1098025435634297  0.16344072095222784  1.0000
  C   C258      1.0  0.8871957813515662  0.14649233512773027  0.1625521263620778  1.0000
  C   C259      1.0  0.8247371840362676  0.1732396519084185  0.18230151704448871  1.0000
  C   C260      1.0  0.790662961654308  0.16338730759675651  0.19304019340691883  1.0000
  C   C261      1.0  0.7626344057661184  0.16357215461792607  0.18069223715620317  1.0000
  C   C262      1.0  0.7664657523258932  0.16844239402004796  0.15606792776437303  1.0000
  C   C263      1.0  0.7995430023622273  0.1749886037562686  0.14495584118537294  1.0000
  C   C264      1.0  0.8306771113716148  0.18198118940605826  0.15820223745380882  1.0000
  H   H145      1.0  0.9270447212454327  0.3470999597366299  0.024837328642893567  1.0000
  H   H146      1.0  0.9273668233500496  0.3486945585780766  0.1009539402577357  1.0000
  H   H147      1.0  0.9243090414098155  0.40714296205319506  0.10073358168793821  1.0000
  H   H148      1.0  0.9292564111224794  0.4074002887623596  0.024682128902833105  1.0000
  H   H149      1.0  0.9796956487643675  0.3218028172245171  0.09717544416408383  1.0000
  H   H150      1.0  0.04903945983776731  0.3531254153848917  0.0941634593587121  1.0000
  H   H151      1.0  0.04388907150791425  0.3590570687713083  0.018119703907889122  1.0000
  H   H152      1.0  0.9747128462353956  0.3252703107307838  0.021471445468318234  1.0000
  H   H153      1.0  0.8674384064594733  0.28819632433260467  0.09604572610235193  1.0000
  H   H154      1.0  0.8481467570448019  0.24912265041707868  0.13087956487665992  1.0000
  H   H155      1.0  0.917509372133223  0.2013572251170638  0.10680928454536848  1.0000
  H   H156      1.0  0.9399189832751587  0.24454731920660774  0.07375728915348474  1.0000
  H   H157      1.0  0.9311519329593818  0.3077437026044216  0.19606542478756678  1.0000
  H   H158      1.0  0.877381350070285  0.25635677992698735  0.1765954652403743  1.0000
  H   H159      1.0  0.9483555365454537  0.21674262692057342  0.14517637876294445  1.0000
  H   H160      1.0  0.0026587112262857486  0.2688525032305453  0.16440020262088306  1.0000
  H   H161      1.0  0.8402020053126527  0.13869279393963416  0.11170174601664001  1.0000
  H   H162      1.0  0.828356528245608  0.07470336898817444  0.11405641427587333  1.0000
  H   H163      1.0  0.8904785279968584  0.10096233234121102  0.17856616182437152  1.0000
  H   H164      1.0  0.9001037506448354  0.16485624635309515  0.17813260499573666  1.0000
  H   H165      1.0  0.8460167183634004  0.17497214325033617  0.19341610973232484  1.0000
  H   H166      1.0  0.7880433994020403  0.1595758638286982  0.21186465092105716  1.0000
  H   H167      1.0  0.7445688793023797  0.16861871635963252  0.1457459814998215  1.0000
  H   H168      1.0  0.8022734085917069  0.1760862389828697  0.1255469232891154  1.0000
  C   C265      1.0  0.45245262806556874  0.2296515279980357  0.33123061478162863  1.0000
  C   C266      1.0  0.47809140019180973  0.2171354133892033  0.32857950964864663  1.0000
  C   C267      1.0  0.4804689742277426  0.19457143251589715  0.3450893966449282  1.0000
  C   C268      1.0  0.4584000506051127  0.18418417079115063  0.3662302147546632  1.0000
  C   C269      1.0  0.4321957698851946  0.1962446038647632  0.3684338004526382  1.0000
  C   C270      1.0  0.42947570906208243  0.21935524069744822  0.3514942947987497  1.0000
  H   H169      1.0  0.49589605104857387  0.22492249632429745  0.3126871994726748  1.0000
  H   H170      1.0  0.4995322964396053  0.1832171432845837  0.3409578972209428  1.0000
  H   H171      1.0  0.413076282743453  0.18799452092569763  0.384011056946365  1.0000
  H   H172      1.0  0.4071293147489183  0.22701786479925717  0.35393775091388846  1.0000
  C   C271      1.0  0.5321568795483131  0.19038082252492222  0.38748022760654  1.0000
  C   C272      1.0  0.49897277371199533  0.15583497067348162  0.38653327648206487  1.0000
  C   C273      1.0  0.500875057230419  0.12245216051009959  0.3902279969374834  1.0000
  C   C274      1.0  0.5356696241554453  0.12537717437550502  0.39538342082876515  1.0000
  C   C275      1.0  0.5683414695317572  0.160073053741903  0.3941786985097261  1.0000
  C   C276      1.0  0.5665586071937403  0.19226481409478416  0.39092612725609455  1.0000
  C   C277      1.0  0.4589286894744868  0.15450776877929656  0.3846572750105152  1.0000
  C   C278      1.0  0.42451714739029667  0.11652413467758979  0.3731739263082333  1.0000
  C   C279      1.0  0.387224640932851  0.10225140273929488  0.3803592983567071  1.0000
  C   C280      1.0  0.35999714332054683  0.06511622205413392  0.37575163825387403  1.0000
  C   C281      1.0  0.3706463836243689  0.04206687059288219  0.36344843394665916  1.0000
  C   C282      1.0  0.4058706171626652  0.05798326858590798  0.35265605525202814  1.0000
  C   C283      1.0  0.43208870022933354  0.09552446283262417  0.3566926805557921  1.0000
  C   C284      1.0  0.4382425237328176  0.1271795444465613  0.42712328923720816  1.0000
  C   C285      1.0  0.43150893108989197  0.13003941267601438  0.4507916971158632  1.0000
  C   C286      1.0  0.43341210371307815  0.16248289035705765  0.4604026245020755  1.0000
  C   C287      1.0  0.44643331151514476  0.1937264708587259  0.44552528840469974  1.0000
  C   C288      1.0  0.45544703016024796  0.1919618219338179  0.42214508304218923  1.0000
  C   C289      1.0  0.4503049104505014  0.15810266685368052  0.4121206476980304  1.0000
  C   C290      1.0  0.42329179361561636  0.16328827889183226  0.4878409361012303  1.0000
  C   C291      1.0  0.3383991254856048  0.04844677037523663  0.014764990818411565  1.0000
  C   C292      1.0  0.367505918712663  0.0744052246407404  0.02903201781110204  1.0000
  C   C293      1.0  0.39095142582752823  0.11147638398672718  0.0218731389131806  1.0000
  C   C294      1.0  0.3895093099963133  0.12406800251783326  0.4993565062028326  1.0000
  C   C295      1.0  0.3578670897686648  0.0989088890809015  0.4861063507711428  1.0000
  C   C296      1.0  0.33286350863245234  0.061302449669765516  0.49327024188673624  1.0000
  C   C297      1.0  0.40664310344757154  0.19045241471961488  0.4946324910468978  1.0000
  C   C298      1.0  0.41453931077730644  0.20944017829686856  0.016334727889419837  1.0000
  C   C299      1.0  0.4066828010119849  0.23858833091564058  0.02069580478356394  1.0000
  C   C300      1.0  0.3872125973545591  0.24650402078901046  0.0038961433515446453  1.0000
  C   C301      1.0  0.37517630545991687  0.22445743385530825  0.4834624059491209  1.0000
  C   C302      1.0  0.3836471960415044  0.19563116669891462  0.47961194873031987  1.0000
  C   C303      1.0  0.4911620242689166  0.2193237608804963  0.49579067134469623  1.0000
  C   C304      1.0  0.524362102304059  0.235704665904574  0.007583703496003125  1.0000
  C   C305      1.0  0.5337234100148701  0.21454327024003642  0.022181390300013485  1.0000
  C   C306      1.0  0.511211436187312  0.17523784592359387  0.0216715761596534  1.0000
  C   C307      1.0  0.47772308477497816  0.1578591809973972  0.008731873910416564  1.0000
  C   C308      1.0  0.46506835766001575  0.18049515515707928  0.49800678758685135  1.0000
  H   H173      1.0  0.532076762617993  0.21650794991230674  0.386032054714857  1.0000
  H   H174      1.0  0.4752020853638149  0.09485655310645406  0.39095834865541507  1.0000
  H   H175      1.0  0.5356568684002418  0.09880476103058397  0.3956501424120294  1.0000
  H   H176      1.0  0.5929207942430533  0.2191801449684857  0.3903801535453859  1.0000
  H   H177      1.0  0.3785307248915341  0.11872381202963989  0.3910926044859172  1.0000
  H   H178      1.0  0.3307894162062464  0.05352363608699562  0.38285466672630664  1.0000
  H   H179      1.0  0.41414873235175775  0.04004781332975937  0.34215366915128176  1.0000
  H   H180      1.0  0.45994205445933767  0.10727577670229176  0.34872504453492587  1.0000
  H   H181      1.0  0.43542600901562684  0.10078152478687116  0.4202225395493988  1.0000
  H   H182      1.0  0.42221467694198833  0.1048803517141404  0.4620656067225618  1.0000
  H   H183      1.0  0.45122027374255097  0.2204834728438336  0.4530686760011792  1.0000
  H   H184      1.0  0.4686448247840463  0.2179358217404744  0.411841395570586  1.0000
  H   H185      1.0  0.37222699046768626  0.06504324298503103  0.046244510320344774  1.0000
  H   H186      1.0  0.41171487386727024  0.12978802821552246  0.03417705925149156  1.0000
  H   H187      1.0  0.35190364671140184  0.10714774733572857  0.4695445515204003  1.0000
  H   H188      1.0  0.30928604398461196  0.0415969674150203  0.48162757626559183  1.0000
  H   H189      1.0  0.4318984681963863  0.20758328688516192  0.029676803813060256  1.0000
  H   H190      1.0  0.4159959281301465  0.25577145284334635  0.03695006867856951  1.0000
  H   H191      1.0  0.3603679129405758  0.22926050670570594  0.46954276144266033  1.0000
  H   H192      1.0  0.3740225513039881  0.17957892247999432  0.46315397398849906  1.0000
  H   H193      1.0  0.4847361483505961  0.23872056671795175  0.48662189316027094  1.0000
  H   H194      1.0  0.5423910661230485  0.2663962876373218  0.006597370661247436  1.0000
  H   H195      1.0  0.5185471073241036  0.15633165286009787  0.03092842616888809  1.0000
  H   H196      1.0  0.461222671094694  0.12722468053810532  0.007471802387655798  1.0000
  C   C309      1.0  0.830050429825941  0.19992348773970872  0.4375451218396533  1.0000
  C   C310      1.0  0.8151251535926503  0.16095664906967797  0.43520907038891626  1.0000
  C   C311      1.0  0.7930437436357227  0.14237731296967787  0.41586728040790977  1.0000
  C   C312      1.0  0.7838125254323286  0.16122637473444315  0.3987040150365178  1.0000
  C   C313      1.0  0.7995825538593146  0.20048071541948378  0.40187782286958806  1.0000
  C   C314      1.0  0.8211348150749886  0.21883742910361248  0.42128405564923566  1.0000
  H   H197      1.0  0.8213754491293416  0.14434935189307468  0.4476680114595135  1.0000
  H   H198      1.0  0.7865235085078024  0.1132145235745072  0.4143833059614262  1.0000
  H   H199      1.0  0.7974558886375172  0.2175904372578761  0.38850415207383615  1.0000
  H   H200      1.0  0.8351001129274359  0.2498579551155905  0.4228414232830603  1.0000
  C   C315      1.0  0.7181276156871954  0.1731228202322769  0.37988492775559957  1.0000
  C   C316      1.0  0.718473855396932  0.1385593667805889  0.3776491206583042  1.0000
  C   C317      1.0  0.6840823088009734  0.1054580188390765  0.37271029617356594  1.0000
  C   C318      1.0  0.6507005076663283  0.10617288472629557  0.37216074230737717  1.0000
  C   C319      1.0  0.6511794583448065  0.14066109690783954  0.37550818768123023  1.0000
  C   C320      1.0  0.6847452433993299  0.1736135820273251  0.3796915993596765  1.0000
  C   C321      1.0  0.7581912448293303  0.1387204266892695  0.37524504625344607  1.0000
  C   C322      1.0  0.7554774142279699  0.0975924208778953  0.3725742502653238  1.0000
  C   C323      1.0  0.7806474805351813  0.09162398311286918  0.35777567758850926  1.0000
  C   C324      1.0  0.779732152204949  0.05725159935532427  0.35734247877542236  1.0000
  C   C325      1.0  0.7545091478439512  0.027457549476417417  0.371396379112385  1.0000
  C   C326      1.0  0.7327904802933215  0.03326774039620136  0.38763775444766246  1.0000
  C   C327      1.0  0.7317443126023714  0.06709852947640896  0.38745158636269944  1.0000
  C   C328      1.0  0.7544408999369333  0.1499599721721098  0.3299417588088082  1.0000
  C   C329      1.0  0.7701079533123022  0.1663500287106175  0.30839817320756685  1.0000
  C   C330      1.0  0.8077566466074447  0.19556706412009922  0.3061802668876716  1.0000
  C   C331      1.0  0.8293213466169956  0.20432137690471228  0.3261485840776881  1.0000
  C   C332      1.0  0.8138553622424435  0.18725933995333519  0.3474594595727258  1.0000
  C   C333      1.0  0.7757351186413034  0.16042585958764444  0.35030926333485096  1.0000
  C   C334      1.0  0.8266157961802805  0.20983282172392395  0.2802545709788409  1.0000
  C   C335      1.0  0.8221952246689389  0.10330039555676715  0.25691732748209106  1.0000
  C   C336      1.0  0.7971147977387469  0.11269386877809007  0.2484878514042975  1.0000
  C   C337      1.0  0.7991063486192589  0.14632138035134667  0.2556535325976311  1.0000
  C   C338      1.0  0.8265786621598664  0.1723433826674785  0.27104104085091485  1.0000
  C   C339      1.0  0.8501740575138883  0.16028543668718342  0.2806716590922675  1.0000
  C   C340      1.0  0.8490344737232182  0.1271133986075906  0.27286333999026374  1.0000
  C   C341      1.0  0.8680010575918297  0.24753732409739115  0.2822684084363728  1.0000
  C   C342      1.0  0.8732818428815187  0.27882442291906007  0.29585330840544805  1.0000
  C   C343      1.0  0.9094168348878922  0.30816648285185866  0.300707999236405  1.0000
  C   C344      1.0  0.9408292625454734  0.30847170417519254  0.29046875456344273  1.0000
  C   C345      1.0  0.9357830098751285  0.2803182725866942  0.2746802688963925  1.0000
  C   C346      1.0  0.8996113267458661  0.2498078375382982  0.27098375836323396  1.0000
  C   C347      1.0  0.8229756906169537  0.2373615166163132  0.23949629091613497  1.0000
  C   C348      1.0  0.8022674394828297  0.23821960325219063  0.22124823843428587  1.0000
  C   C349      1.0  0.7634657815745328  0.22133308487398054  0.2239315649665884  1.0000
  C   C350      1.0  0.748168278197037  0.2136601811104241  0.24687141120505182  1.0000
  C   C351      1.0  0.7703479397524151  0.21706798856303897  0.26564216638698934  1.0000
  C   C352      1.0  0.8074789689109407  0.22443086238229024  0.26209065215077304  1.0000
  H   H201      1.0  0.7442152085195124  0.200677948324102  0.3819077156018317  1.0000
  H   H202      1.0  0.6826423274256326  0.07874720213273206  0.36763542578058545  1.0000
  H   H203      1.0  0.6250236887962572  0.08028467557112304  0.36840515920879763  1.0000
  H   H204      1.0  0.6860771096824793  0.20088661021580118  0.3814064938346237  1.0000
  H   H205      1.0  0.8022126846623593  0.11387703232075749  0.34619387461052575  1.0000
  H   H206      1.0  0.8003092967440304  0.055135661299393186  0.3454259312600536  1.0000
  H   H207      1.0  0.7137355716806458  0.012414511118318703  0.4003204552357633  1.0000
  H   H208      1.0  0.7130804332439268  0.06961182554952217  0.4001861994052613  1.0000
  H   H209      1.0  0.7258956115577159  0.1261864359807039  0.329927438186888  1.0000
  H   H210      1.0  0.7523898381273743  0.1549718600734451  0.2928585083463805  1.0000
  H   H211      1.0  0.860074458606903  0.22382706043029024  0.3255560683457387  1.0000
  H   H212      1.0  0.8346407741773212  0.192639729557853  0.36095306557705964  1.0000
  H   H213      1.0  0.775549678392162  0.09378719844342098  0.2365605634224885  1.0000
  H   H214      1.0  0.7761552371572152  0.15034431415239866  0.250097131292583  1.0000
  H   H215      1.0  0.8712441592982721  0.1772168295060643  0.2939755168561583  1.0000
  H   H216      1.0  0.8699909105064821  0.1207033774074643  0.280449689452504  1.0000
  H   H217      1.0  0.850252533756679  0.27858595248773566  0.30564503364340323  1.0000
  H   H218      1.0  0.9125534298879109  0.3311349828897495  0.3125028214654519  1.0000
  H   H219      1.0  0.9594033289182927  0.2814401924775874  0.26529668138316387  1.0000
  H   H220      1.0  0.8977574879152779  0.22762992090107062  0.25917998574548695  1.0000
  H   H221      1.0  0.8515821308520779  0.24353378055708966  0.23518578371814672  1.0000
  H   H222      1.0  0.8148546675238627  0.24314545723300882  0.20309685015039822  1.0000
  H   H223      1.0  0.7178804938237058  0.20202983680177913  0.25071649819063285  1.0000
  H   H224      1.0  0.7560885649418959  0.21044421595978965  0.28276067981488057  1.0000
  C   C353      1.0  0.2999069052925372  0.8428700287289441  0.1855182867433197  1.0000
  C   C354      1.0  0.2995046520100514  0.8753069849092819  0.1797900379752289  1.0000
  C   C355      1.0  0.32244429891769655  0.8985670971663045  0.16123534517651292  1.0000
  C   C356      1.0  0.3445059330528116  0.8880392711598523  0.1470974901935429  1.0000
  C   C357      1.0  0.3439481378702376  0.8548406122716664  0.15318429153296134  1.0000
  C   C358      1.0  0.324200266392354  0.8341188343681203  0.17314544841201765  1.0000
  H   H225      1.0  0.2806059102187471  0.883469684597552  0.18790267029303748  1.0000
  H   H226      1.0  0.3167765887155758  0.9214330805159436  0.1561780175453848  1.0000
  H   H227      1.0  0.36002253602875184  0.8446640572432583  0.14307572253502115  1.0000
  H   H228      1.0  0.3251082153499631  0.808534284685449  0.1771255072591967  1.0000
  C   C359      1.0  0.4295817730672951  0.9174709180298729  0.1405717617922695  1.0000
  C   C360      1.0  0.4097892385888178  0.9218673130535259  0.12190035592490361  1.0000
  C   C361      1.0  0.4314479088812155  0.9396818245148613  0.10150134603063637  1.0000
  C   C362      1.0  0.46907544388535355  0.9492966937864104  0.09914363463924501  1.0000
  C   C363      1.0  0.48613713645344303  0.9406149189619566  0.11711440407916378  1.0000
  C   C364      1.0  0.4661774278569528  0.925062939938466  0.13795824829182807  1.0000
  C   C365      1.0  0.3656134295935279  0.9100828951643692  0.12275834018569921  1.0000
  C   C366      1.0  0.3676600219126061  0.95077653794819  0.11973919506936737  1.0000
  C   C367      1.0  0.3551488559466821  0.9612756391026067  0.09973400227790637  1.0000
  C   C368      1.0  0.35508728209815843  0.9954267439294969  0.09909440750139423  1.0000
  C   C369      1.0  0.3703386500514406  0.02096788303175207  0.1176272613516819  1.0000
  C   C370      1.0  0.38635502892032264  0.012983009902032716  0.13595103412193424  1.0000
  C   C371      1.0  0.384649930720083  0.9783119440248113  0.13735123293018445  1.0000
  C   C372      1.0  0.3531429019619644  0.8690949227807118  0.08341762268532182  1.0000
  C   C373      1.0  0.33119629857945215  0.8529011195545902  0.0633096794315832  1.0000
  C   C374      1.0  0.29428605772436717  0.8442986726936734  0.06278196451382283  1.0000
  C   C375      1.0  0.28009825550346407  0.854320474476837  0.08268601791297224  1.0000
  C   C376      1.0  0.3022781421550513  0.8723979285337403  0.10198950023034212  1.0000
  C   C377      1.0  0.34002878862158825  0.8822190805894998  0.102297751617175  1.0000
  C   C378      1.0  0.2667855066281102  0.823086786835037  0.041180022378256534  1.0000
  C   C379      1.0  0.2989820775506971  0.9354214292435871  0.011369517658793559  1.0000
  C   C380      1.0  0.31558206805794586  0.9152026839761556  0.002863268495548299  1.0000
  C   C381      1.0  0.3029904331209197  0.8779260946841347  0.009977553208147503  1.0000
  C   C382      1.0  0.2737982216614573  0.8599557846839084  0.02670616980348318  1.0000
  C   C383      1.0  0.25509258904793  0.8794050274161375  0.033447065549108  1.0000
  C   C384      1.0  0.26744886112837873  0.9167381925316044  0.026681645738444792  1.0000
  C   C385      1.0  0.225320209401777  0.7942066052963002  0.05109884313575371  1.0000
  C   C386      1.0  0.21886917637185244  0.7711061959405457  0.07075998298558125  1.0000
  C   C387      1.0  0.18286469256614457  0.7477514532311204  0.07951292611099794  1.0000
  C   C388      1.0  0.1521359851511778  0.744117527361231  0.06733108907455693  1.0000
  C   C389      1.0  0.15801175176247076  0.7646702192169198  0.04707260028288191  1.0000
  C   C390      1.0  0.1939262267186638  0.7900271617520038  0.03940516029901841  1.0000
  C   C391      1.0  0.2550271515554246  0.7840488715124978  0.0030351159585909615  1.0000
  C   C392      1.0  0.26016971151672563  0.7602614920709448  0.4871607065600194  1.0000
  C   C393      1.0  0.28738147284182397  0.750990010028736  0.49243427558214303  1.0000
  C   C394      1.0  0.3002639542460849  0.7551498584724818  0.015287747220832048  1.0000
  C   C395      1.0  0.29201239725218786  0.7756837816482276  0.0313770196505392  1.0000
  C   C396      1.0  0.2728622408370728  0.7939966341216521  0.024897654262732525  1.0000
  H   H229      1.0  0.41763207978196665  0.9078130964132795  0.1586653305651542  1.0000
  H   H230      1.0  0.41933937893504675  0.9457824969825629  0.08659930686044824  1.0000
  H   H231      1.0  0.4840449071361061  0.961429285770006  0.08240300662227375  1.0000
  H   H232      1.0  0.47899335927460623  0.9164467059719318  0.15114109680049295  1.0000
  H   H233      1.0  0.3433841359455634  0.94223731618539  0.08420328780542026  1.0000
  H   H234      1.0  0.3412556085034102  0.9999756179531564  0.08464006677398718  1.0000
  H   H235      1.0  0.3982541839486443  0.03291113801182583  0.15072293464042233  1.0000
  H   H236      1.0  0.3966142230325507  0.9726593980543969  0.152660335778455  1.0000
  H   H237      1.0  0.381356136318541  0.873193553875823  0.08347562120409872  1.0000
  H   H238      1.0  0.3447662423647984  0.8467054549783478  0.04789084481784886  1.0000
  H   H239      1.0  0.2511673517929355  0.8475254491802141  0.08325365156433522  1.0000
  H   H240      1.0  0.28949734953903944  0.8823320843020103  0.11489309661156258  1.0000
  H   H241      1.0  0.33944165032802515  0.9291628231999378  0.49019309825162755  1.0000
  H   H242      1.0  0.31881078865727486  0.864200484336999  0.0031765321000533082  1.0000
  H   H243      1.0  0.2313519806074362  0.8664914289841733  0.04557842239328023  1.0000
  H   H244      1.0  0.2520653065546032  0.9300189843744019  0.032992743818688795  1.0000
  H   H245      1.0  0.2417489719928041  0.7719588805845844  0.08130944813089042  1.0000
  H   H246      1.0  0.18037280038961498  0.7310157980437879  0.0952994426925341  1.0000
  H   H247      1.0  0.135324369007504  0.760225601131942  0.036408570162210926  1.0000
  H   H248      1.0  0.19765528268072602  0.8062480058348922  0.02372533235078795  1.0000
  H   H249      1.0  0.23684099623710228  0.7947750281499427  0.4973462489007809  1.0000
  H   H250      1.0  0.24886048038079725  0.7558942682542825  0.46937449413509763  1.0000
  H   H251      1.0  0.3197409542495007  0.7463531586725706  0.02046416872400427  1.0000
  H   H252      1.0  0.3054572948770709  0.7801217504506781  0.048476379246612154  1.0000
  C   C397      1.0  0.22843455218877895  0.4121285511780771  0.37313812475343267  1.0000
  C   C398      1.0  0.1951798998025893  0.3825589948129943  0.3647856220184603  1.0000
  C   C399      1.0  0.17543106845203665  0.38780179903706474  0.3471086043356802  1.0000
  C   C400      1.0  0.18895440486658407  0.4232978315639345  0.337060897980901  1.0000
  C   C401      1.0  0.22395646548013073  0.45246042625333943  0.34511445773328864  1.0000
  C   C402      1.0  0.2430267086574563  0.44733702021694033  0.36298838396747185  1.0000
  H   H253      1.0  0.18288769857658416  0.35428775212925406  0.3724740059118822  1.0000
  H   H254      1.0  0.14777299853444498  0.36428057303873707  0.3427730360493315  1.0000
  H   H255      1.0  0.23593003076180707  0.48054644412793496  0.3372381156771638  1.0000
  H   H256      1.0  0.26983428064169007  0.4709349199380445  0.3678448648761688  1.0000
  C   C403      1.0  0.16695237779521  0.4864406432251594  0.3395383655731003  1.0000
  C   C404      1.0  0.16484772102010842  0.4685223658409693  0.3180216311379593  1.0000
  C   C405      1.0  0.1566352489276419  0.4831162852415341  0.2979763406051216  1.0000
  C   C406      1.0  0.1560191971187942  0.5167656940367296  0.2990987193481195  1.0000
  C   C407      1.0  0.1622074383276916  0.5362055268522539  0.32030040010101546  1.0000
  C   C408      1.0  0.16587052659158144  0.5200296835139465  0.34093820636580247  1.0000
  C   C409      1.0  0.1665317802711817  0.4301023019168637  0.3163962405500136  1.0000
  C   C410      1.0  0.12168025858409405  0.40082404023897544  0.31506263263369244  1.0000
  C   C411      1.0  0.1032448581481025  0.38689489658680515  0.2932451651382267  1.0000
  C   C412      1.0  0.06557497577046309  0.36216216082585356  0.2931395505515651  1.0000
  C   C413      1.0  0.043356797570164265  0.35299046645963333  0.3137952575937523  1.0000
  C   C414      1.0  0.06098637247376141  0.3693452639619915  0.3348465718164859  1.0000
  C   C415      1.0  0.09933955416558363  0.39047658250450584  0.3359331490046832  1.0000
  C   C416      1.0  0.21148934752077272  0.4573618524337918  0.27842332145079185  1.0000
  C   C417      1.0  0.21424763172716943  0.452664135035259  0.2543073941371297  1.0000
  C   C418      1.0  0.19946473720856303  0.4161991932038182  0.24443869555635336  1.0000
  C   C419      1.0  0.18507498253435317  0.3863014634131117  0.260570876149489  1.0000
  C   C420      1.0  0.18118975800366335  0.3911247741246152  0.2846348912086903  1.0000
  C   C421      1.0  0.1887167420474949  0.4267618174239386  0.2930518367423036  1.0000
  C   C422      1.0  0.19744699769552707  0.40863179497837837  0.21576344023883895  1.0000
  C   C423      1.0  0.07190317058040235  0.3441499291096874  0.21083535622054084  1.0000
  C   C424      1.0  0.0911052512323494  0.38379398776629087  0.21189866239811772  1.0000
  C   C425      1.0  0.13043807124316162  0.4040954386968824  0.2131105450281169  1.0000
  C   C426      1.0  0.1521604607469252  0.38648388549566876  0.21327165202471945  1.0000
  C   C427      1.0  0.13165919271083287  0.34645357734252913  0.21316424736031775  1.0000
  C   C428      1.0  0.09238954595204729  0.3257617749076883  0.21188971200941759  1.0000
  C   C429      1.0  0.21738681779780042  0.38493188275676943  0.20746463983606747  1.0000
  C   C430      1.0  0.24547708116646125  0.3858314853785736  0.2213896545757481  1.0000
  C   C431      1.0  0.2627675102260958  0.3657494441282107  0.2155951729312763  1.0000
  C   C432      1.0  0.25431643611692795  0.34494165031067964  0.19458861065204341  1.0000
  C   C433      1.0  0.22807919020281606  0.34480578263247674  0.1793281979183016  1.0000
  C   C434      1.0  0.2103965798263871  0.3653699872313704  0.1854932256549593  1.0000
  C   C435      1.0  0.20678838046130124  0.45047867446604517  0.17843477011825346  1.0000
  C   C436      1.0  0.2285445379122178  0.48066774484698077  0.16338952472886303  1.0000
  C   C437      1.0  0.26591146302445484  0.5068620821247467  0.1688435335871815  1.0000
  C   C438      1.0  0.2804466196295192  0.5024658571644004  0.18961040445702454  1.0000
  C   C439      1.0  0.25863051787316893  0.4726527264130103  0.2047097101941638  1.0000
  C   C440      1.0  0.22149812210298186  0.44664083417729294  0.19974940477654515  1.0000
  H   H257      1.0  0.16960893013426578  0.47393320251338605  0.3560410922584218  1.0000
  H   H258      1.0  0.1502753838505603  0.46828491489476887  0.28066270870356735  1.0000
  H   H259      1.0  0.15244359932933824  0.528508433971857  0.28234717185693403  1.0000
  H   H260      1.0  0.17146301134308647  0.5351156562389655  0.35790814334127136  1.0000
  H   H261      1.0  0.11796470930279004  0.3943234533162635  0.27607473945587463  1.0000
  H   H262      1.0  0.052455269132262124  0.35002701240442413  0.2760729493781346  1.0000
  H   H263      1.0  0.04369911417512613  0.3619935933746704  0.35137256951242785  1.0000
  H   H264      1.0  0.11335916593144743  0.40241726626073443  0.35244840623418483  1.0000
  H   H265      1.0  0.22259217300697554  0.48621635849799233  0.2848425402265336  1.0000
  H   H266      1.0  0.22725105590599376  0.4772863887094798  0.24326619463663476  1.0000
  H   H267      1.0  0.17643487761037638  0.3586137543140833  0.2533049506027138  1.0000
  H   H268      1.0  0.16710573758979483  0.36609881089195667  0.29601083524657057  1.0000
  H   H269      1.0  0.07625361759480732  0.40025290010037334  0.2125663613951483  1.0000
  H   H270      1.0  0.14476845517802506  0.4352387432109999  0.2131964687596383  1.0000
  H   H271      1.0  0.14504140590533093  0.32935916755548034  0.21405391599711188  1.0000
  H   H272      1.0  0.07762310579634538  0.295198622337688  0.21045048950643477  1.0000
  H   H273      1.0  0.25417222805363116  0.4014113895432721  0.23816805323303397  1.0000
  H   H274      1.0  0.2837927142495898  0.36726444302574773  0.2273649340719628  1.0000
  H   H275      1.0  0.22012985475286198  0.32798957934982215  0.16272791199614853  1.0000
  H   H276      1.0  0.1894209533002472  0.3651617219037462  0.1737168412266347  1.0000
  H   H277      1.0  0.17794915711026035  0.43011264847862707  0.17320577403185658  1.0000
  H   H278      1.0  0.2180477668004753  0.4835343307608274  0.14655294854502623  1.0000
  H   H279      1.0  0.3105475207070033  0.5219820996763858  0.1940891789625755  1.0000
  H   H280      1.0  0.273440094365673  0.46840053381796204  0.21902317180343062  1.0000
  C   C441      1.0  0.8454256594122438  0.61576005441063  0.10542895560003258  1.0000
  C   C442      1.0  0.8759792834925934  0.649387856231766  0.09837658632764286  1.0000
  C   C443      1.0  0.9016754386956641  0.649935552401594  0.081788114918574  1.0000
  C   C444      1.0  0.8983934448062453  0.6162853001122081  0.07286063921350454  1.0000
  C   C445      1.0  0.8637017961862774  0.5828120947848332  0.0775221806563124  1.0000
  C   C446      1.0  0.837877488905539  0.5823298627042416  0.09376731515484382  1.0000
  H   H281      1.0  0.8817554042788165  0.6757200406049124  0.10712577028980548  1.0000
  H   H282      1.0  0.9263480258731615  0.6778074824239153  0.07726458846952233  1.0000
  H   H283      1.0  0.8580468380423569  0.5562541097100807  0.06883475437618074  1.0000
  H   H284      1.0  0.8117573231686619  0.5557012028962683  0.09794428255342602  1.0000
  C   C447      1.0  0.9265727141156735  0.5586097980952115  0.08308431021012853  1.0000
  C   C448      1.0  0.938332995196621  0.5799994867155163  0.061954769590155716  1.0000
  C   C449      1.0  0.9595876573321254  0.5713648704190522  0.04533103364960831  1.0000
  C   C450      1.0  0.9647815861070237  0.5407886964650354  0.0484797803943182  1.0000
  C   C451      1.0  0.951104099244491  0.5185858339952628  0.06819856074737467  1.0000
  C   C452      1.0  0.9310009861994835  0.5268879282953602  0.08570337295156404  1.0000
  C   C453      1.0  0.9319868302341957  0.6162225485385875  0.05715897231684573  1.0000
  C   C454      1.0  0.9738051102755294  0.6500490403141527  0.0629690276376558  1.0000
  C   C455      1.0  0.001618350977115146  0.6662402403792361  0.0454060379069155  1.0000
  C   C456      1.0  0.03778184764871198  0.6936908024618986  0.05066797142372887  1.0000
  C   C457      1.0  0.047238411000456906  0.7061389010545944  0.07373133302625434  1.0000
  C   C458      1.0  0.02054090820434641  0.6904681768072857  0.09207121649616692  1.0000
  C   C459      1.0  0.9842109017594183  0.6617490717085028  0.0866159545834305  1.0000
  C   C460      1.0  0.9047175922154684  0.5875390852020091  0.015322635835985197  1.0000
  C   C461      1.0  0.8975707522977536  0.5910334720552475  0.49184713008341363  1.0000
  C   C462      1.0  0.902983292554756  0.6249550465577793  0.48316525304427616  1.0000
  C   C463      1.0  0.9176074500475832  0.6565408200137184  0.4982108564492146  1.0000
  C   C464      1.0  0.9266369400354528  0.6539604046554527  0.02166423684091929  1.0000
  C   C465      1.0  0.92108707829271  0.6196678733777493  0.030511338055461478  1.0000
  C   C466      1.0  0.8991473013874328  0.630871116434374  0.4550789333032311  1.0000
  C   C467      1.0  0.022533520703421527  0.7022945414858921  0.43573177308900446  1.0000
  C   C468      1.0  0.006675581906406549  0.6638843754465249  0.4413651477368738  1.0000
  C   C469      1.0  0.9688261303600912  0.6417133174195535  0.4474585723639304  1.0000
  C   C470      1.0  0.9447187260919421  0.6571149109893429  0.44814238206062124  1.0000
  C   C471      1.0  0.9614467515462878  0.6958250979255989  0.44360453498964925  1.0000
  C   C472      1.0  0.9996406691412765  0.7184014961631268  0.43793893894245944  1.0000
  C   C473      1.0  0.8725131437131817  0.6494821581943196  0.45188006438180045  1.0000
  C   C474      1.0  0.8447402932517558  0.6463889908172215  0.4684006918445222  1.0000
  C   C475      1.0  0.8207190603268427  0.6599371934863285  0.4635245200806849  1.0000
  C   C476      1.0  0.8225858087027711  0.6752747497155935  0.4418430984934614  1.0000
  C   C477      1.0  0.850210840417558  0.6800617194875352  0.42563215447976444  1.0000
  C   C478      1.0  0.8745263801334294  0.6670194644248186  0.43037407041309966  1.0000
  C   C479      1.0  0.8927422396373959  0.5861575311652027  0.41988421485653343  1.0000
  C   C480      1.0  0.8744586250852299  0.5516526055663578  0.40762218233733905  1.0000
  C   C481      1.0  0.8386195658513466  0.5237312151725492  0.4138498627948977  1.0000
  C   C482      1.0  0.8222009122763472  0.528803798126112  0.4346434058230672  1.0000
  C   C483      1.0  0.8412333954542266  0.5625875719262624  0.4476053587386127  1.0000
  C   C484      1.0  0.8769978264540682  0.5916831987294435  0.44041103630143874  1.0000
  H   H285      1.0  0.9138986324361585  0.5669094267090246  0.09736537141230084  1.0000
  H   H286      1.0  0.9720524111571905  0.5885864797311184  0.029714037430052843  1.0000
  H   H287      1.0  0.9799229829766598  0.5335849821188444  0.03491510830370526  1.0000
  H   H288      1.0  0.9187282335802802  0.5087978904324559  0.10071675495718194  1.0000
  H   H289      1.0  0.9964384577799025  0.6580029235188654  0.026596259030245435  1.0000
  H   H290      1.0  0.059086055139687566  0.705601129987001  0.036730068124320024  1.0000
  H   H291      1.0  0.026271151317636878  0.699880494890579  0.11058724361569833  1.0000
  H   H292      1.0  0.9653660912706661  0.6482000166644358  0.1020899235915577  1.0000
  H   H293      1.0  0.8966231343172005  0.5595552085886167  0.0213115915261337  1.0000
  H   H294      1.0  0.8881141366241105  0.5654751938409283  0.4810350605336424  1.0000
  H   H295      1.0  0.9250025466808971  0.6847887542461841  0.4919670652919956  1.0000
  H   H296      1.0  0.9399042374458134  0.680100003636973  0.0321345805501192  1.0000
  H   H297      1.0  0.024100551253027368  0.6505400488159263  0.44034659350279765  1.0000
  H   H298      1.0  0.9565370581818453  0.6109765965561361  0.4511944646073695  1.0000
  H   H299      1.0  0.9458912184688825  0.7105901133585935  0.4448432687857489  1.0000
  H   H300      1.0  0.011561840711282528  0.7481488556280573  0.43324356503036515  1.0000
  H   H301      1.0  0.8419072444426675  0.6326069736285558  0.4855693274491342  1.0000
  H   H302      1.0  0.8000815518465932  0.6565533964541401  0.4772508361912225  1.0000
  H   H303      1.0  0.850413340364011  0.6904980644322213  0.4077349572349609  1.0000
  H   H304      1.0  0.8948597565238853  0.6696768558673982  0.4168034910659446  1.0000
  H   H305      1.0  0.9192709845212643  0.6084777125627774  0.41202040334458884  1.0000
  H   H306      1.0  0.886093586769528  0.5485120878181404  0.39103890215371634  1.0000
  H   H307      1.0  0.7941290915609436  0.5063313193434885  0.4394963065762842  1.0000
  H   H308      1.0  0.8264122864151434  0.5661863751376635  0.4626796033873915  1.0000
  C   C485      1.0  0.4289337728834287  0.24363179230390042  0.2665318350237834  1.0000
  C   C486      1.0  0.39598433304283376  0.2407223886518436  0.25839235153987444  1.0000
  C   C487      1.0  0.3972081393348963  0.26074385972656383  0.23852964893651973  1.0000
  C   C488      1.0  0.43151770941183265  0.28674689583247065  0.22776054125250905  1.0000
  C   C489      1.0  0.46421151138717553  0.28954651151673183  0.2364907503906274  1.0000
  C   C490      1.0  0.4635601848116898  0.2689382110046299  0.2557090250075719  1.0000
  H   H309      1.0  0.36813308893505986  0.22119592884051908  0.2659160482812137  1.0000
  H   H310      1.0  0.37158595302846015  0.258824529760884  0.23278886962424875  1.0000
  H   H311      1.0  0.4916836883859258  0.3097602725292337  0.22861977856772267  1.0000
  H   H312      1.0  0.490499377142327  0.27376444045987264  0.26279952293582426  1.0000
  C   C491      1.0  0.4749476120044983  0.3738647566441014  0.23393809953334696  1.0000
  C   C492      1.0  0.4679887006029685  0.3583337281051556  0.21064560798009788  1.0000
  C   C493      1.0  0.4865314652151854  0.38366925771154625  0.19185516194302013  1.0000
  C   C494      1.0  0.5136061615052612  0.42105597329240535  0.19597950105604547  1.0000
  C   C495      1.0  0.522373075267419  0.43432275900091155  0.2195405042702988  1.0000
  C   C496      1.0  0.5033370573239394  0.410278540080623  0.23821101509879467  1.0000
  C   C497      1.0  0.4370762948210519  0.3143877279570417  0.20597887531184392  1.0000
  C   C498      1.0  0.40107973766798555  0.3189031399612227  0.1999319927060281  1.0000
  C   C499      1.0  0.39211585309748936  0.32247218517747583  0.17660047745804638  1.0000
  C   C500      1.0  0.36479104091189213  0.33151289245659277  0.17235763519863118  1.0000
  C   C501      1.0  0.3465110035058576  0.33907590363773765  0.1907829053767431  1.0000
  C   C502      1.0  0.3532097350156385  0.3334303548095169  0.2136439881946454  1.0000
  C   C503      1.0  0.37987333989222405  0.32369840865426036  0.21841991560504107  1.0000
  C   C504      1.0  0.48135916694564856  0.3071616702310385  0.1725865861415808  1.0000
  C   C505      1.0  0.4838536826712757  0.2934973495025304  0.1502967171305216  1.0000
  C   C506      1.0  0.4520579009107412  0.2632424172646644  0.13981939211813557  1.0000
  C   C507      1.0  0.418309894593534  0.2462437591484772  0.15326878320229068  1.0000
  C   C508      1.0  0.41583764882354934  0.2604195192228523  0.17510271941296465  1.0000
  C   C509      1.0  0.44628125619627845  0.2934176813244986  0.18419541929343872  1.0000
  C   C510      1.0  0.45007555703860236  0.25023887871801553  0.11247631265475028  1.0000
  C   C511      1.0  0.38410540428562595  0.301984733695681  0.08903792976568888  1.0000
  C   C512      1.0  0.4209068281994008  0.324037345180103  0.09501643140183562  1.0000
  C   C513      1.0  0.4426291809366717  0.30806350209246464  0.10095698338989374  1.0000
  C   C514      1.0  0.42540356030924176  0.2683551966237972  0.10276746801615844  1.0000
  C   C515      1.0  0.3865530113840575  0.24680677096456813  0.09857976015113606  1.0000
  C   C516      1.0  0.3666251870692117  0.2633874655654421  0.09123149102831965  1.0000
  C   C517      1.0  0.43100180504081204  0.20465113900192505  0.10989448353030738  1.0000
  C   C518      1.0  0.43390918183725335  0.1840472412319039  0.12832208080948138  1.0000
  C   C519      1.0  0.4219737672398262  0.14605095881816635  0.1257991452426854  1.0000
  C   C520      1.0  0.4064297939551274  0.1273329093448387  0.10470504816196514  1.0000
  C   C521      1.0  0.40193613513969306  0.14703512512134434  0.08617738553712355  1.0000
  C   C522      1.0  0.4142992190934619  0.1851848052534834  0.08858969429958576  1.0000
  C   C523      1.0  0.4905711687009175  0.2724902485640656  0.07329294298772139  1.0000
  C   C524      1.0  0.5208865799347768  0.2775913506368596  0.059015819956577155  1.0000
  C   C525      1.0  0.5474414969676822  0.2706216951497341  0.06809187211406897  1.0000
  C   C526      1.0  0.5470503316858325  0.2633449558366287  0.09229014300377239  1.0000
  C   C527      1.0  0.5176080282055714  0.25933704514385875  0.10640794911605413  1.0000
  C   C528      1.0  0.4878665027714056  0.2624831109039168  0.09747402913112056  1.0000
  H   H313      1.0  0.4603612683436354  0.35745795977704625  0.24965140193531596  1.0000
  H   H314      1.0  0.481083829834194  0.37451966503788453  0.17353998154591987  1.0000
  H   H315      1.0  0.5297785899867024  0.4406502285919783  0.18182356628790114  1.0000
  H   H316      1.0  0.5106959752009214  0.41985664370435405  0.2563856743933026  1.0000
  H   H317      1.0  0.408761615587648  0.3211892897411759  0.16156292940293812  1.0000
  H   H318      1.0  0.36047339171724146  0.3358853200309923  0.154172056429909  1.0000
  H   H319      1.0  0.34060257332964433  0.34061744491618945  0.22845509141564002  1.0000
  H   H320      1.0  0.38579152688787516  0.3217900554889786  0.2368505560163731  1.0000
  H   H321      1.0  0.5052723657579654  0.33202594129252727  0.1794893049149041  1.0000
  H   H322      1.0  0.5108034919352705  0.30701474515184357  0.14074539933305222  1.0000
  H   H323      1.0  0.39372078790921067  0.2240709502528683  0.14525925936230774  1.0000
  H   H324      1.0  0.3880343861009583  0.2490311635714744  0.18338272399946587  1.0000
  H   H325      1.0  0.4353256684182175  0.35515055367081116  0.09257870353546498  1.0000
  H   H326      1.0  0.4726230983007193  0.3254537574564474  0.10458923013218531  1.0000
  H   H327      1.0  0.3708012412743112  0.2161670237705072  0.10161465795158017  1.0000
  H   H328      1.0  0.3367731484508439  0.245959134825987  0.0877517589094785  1.0000
  H   H329      1.0  0.4487208152176259  0.19749195868751374  0.14478524677674826  1.0000
  H   H330      1.0  0.4266340095536102  0.13167582578001938  0.14024739970577635  1.0000
  H   H331      1.0  0.38919673872166854  0.13204951464578404  0.06998541634747098  1.0000
  H   H332      1.0  0.41164303845018313  0.20055166656691562  0.07359475009469017  1.0000
  H   H333      1.0  0.4681762416977833  0.2737428799268058  0.0639720081953937  1.0000
  H   H334      1.0  0.5197487561345376  0.2844301068992031  0.040537026454038345  1.0000
  H   H335      1.0  0.5685959962516473  0.2591007554607668  0.10048547691317027  1.0000
  H   H336      1.0  0.5141366957114181  0.2490793254580722  0.12419541459539399  1.0000
  C   C529      1.0  0.27787301817841936  0.3253812804127038  0.18999169101565058  1.0000
  C   C530      1.0  0.32044992784926873  0.35450076278614767  0.18586198166940512  1.0000
  H   H337      1.0  0.2669750425724263  0.30440255784065157  0.17532415202940616  1.0000
  H   H338      1.0  0.2753318693348826  0.3091622864659623  0.2064568260684315  1.0000
  H   H339      1.0  0.32864404275816  0.37972124447453715  0.19700879575656177  1.0000
  H   H340      1.0  0.3248686626491876  0.3662497153711056  0.16737924999583828  1.0000
  C   C531      1.0  0.0866895467893965  0.7346467430924767  0.07956680745097279  1.0000
  C   C532      1.0  0.11257812925123196  0.7166844780685064  0.07635021675991582  1.0000
  H   H341      1.0  0.09562416580495821  0.7600714547078504  0.0682327512322092  1.0000
  H   H342      1.0  0.0902344858280292  0.7457291025678409  0.09830605726468575  1.0000
  H   H343      1.0  0.11365645836358851  0.7044734199549487  0.09386845454715544  1.0000
  H   H344      1.0  0.10023267914669692  0.6917219751557159  0.06431892526141118  1.0000
  C   C533      1.0  0.36944444487604805  0.057870172982182035  0.11873048626286138  1.0000
  C   C534      1.0  0.4000111785957366  0.08720749481554177  0.10071299579392788  1.0000
  H   H345      1.0  0.34063214612235937  0.05346845103912074  0.11434998702523798  1.0000
  H   H346      1.0  0.37490382916254844  0.0696560996080004  0.13729341341918153  1.0000
  H   H347      1.0  0.3911514756285835  0.07604282514410136  0.08247192461526484  1.0000
  H   H348      1.0  0.4281376704112658  0.0898335068457689  0.10297869718948179  1.0000
  C   C535      1.0  0.9808647113731547  0.339670930848684  0.2960502169568511  1.0000
  C   C536      1.0  0.000590320003660047  0.3257550797966624  0.3127140506387752  1.0000
  H   H349      1.0  0.9963557495417051  0.3493941683161192  0.2787956576207178  1.0000
  H   H350      1.0  0.9812287357578139  0.3651669088905056  0.30397131095647667  1.0000
  H   H351      1.0  0.9958137504221491  0.29784778294942826  0.30615341572157123  1.0000
  H   H352      1.0  0.9876727433644515  0.3196179954178337  0.33037495762189506  1.0000
  C   C537      1.0  0.605905526553656  0.16145795677631788  0.3952634856201832  1.0000
  C   C538      1.0  0.6142039249105549  0.1416648502332634  0.373535522011719  1.0000
  H   H353      1.0  0.6295720904674939  0.19096922725809995  0.3972522619893548  1.0000
  H   H354      1.0  0.606685919403887  0.1479123534256948  0.4118073840935254  1.0000
  H   H355      1.0  0.6156925237683282  0.15742321052557762  0.35720822294492016  1.0000
  H   H356      1.0  0.5896371355584304  0.1122871598513252  0.37155032579802755  1.0000
  C   C539      1.0  0.31518465161686515  0.00640799981266027  0.022169575786929296  1.0000
  C   C540      1.0  0.31209502664173605  0.9764120143828521  0.0027648142198467562  1.0000
  H   H357      1.0  0.3258806950157786  0.002236212866548737  0.03946835004324141  1.0000
  H   H358      1.0  0.28697730221111095  0.0010356410100482716  0.027911608153618282  1.0000
  H   H359      1.0  0.3388504514228208  0.9879274600102897  0.492747539186648  1.0000
  H   H360      1.0  0.2914125659459601  0.9734067721376204  0.489210345572352  1.0000
  C   C541      1.0  0.578014232492927  0.27330584394099056  0.05052494421230061  1.0000
  C   C542      1.0  0.568282811818091  0.23405517726674838  0.03850009699366007  1.0000
  H   H361      1.0  0.58498924131173  0.2953488643251488  0.036631255833070454  1.0000
  H   H362      1.0  0.6046562765220304  0.2836815265284843  0.06051017685395284  1.0000
  H   H363      1.0  0.5658034674321408  0.21466568188538343  0.052789571561210495  1.0000
  H   H364      1.0  0.5926975884937654  0.2375991423738387  0.027798475240448487  1.0000
  C   C543      1.0  0.42912125060368633  0.22256088818147224  0.2883851040740497  1.0000
  C   C544      1.0  0.444640649693806  0.2490169786714943  0.3102652242904164  1.0000
  H   H365      1.0  0.40115952513482656  0.19803258913482855  0.2925649355970159  1.0000
  H   H366      1.0  0.44706115591924417  0.2089980358968079  0.28459013926518956  1.0000
  H   H367      1.0  0.424373448962718  0.25827405499561584  0.31596662189240676  1.0000
  H   H368      1.0  0.4710758499267007  0.276424192936836  0.3067924734747614  1.0000
  C   C545      1.0  0.9221294162985567  0.44657059177889286  0.06275654540991443  1.0000
  C   C546      1.0  0.9565524323927961  0.4839049807195943  0.07155334543996182  1.0000
  H   H369      1.0  0.9143661898691711  0.4499952989771091  0.04436260159225296  1.0000
  H   H370      1.0  0.8962508916017269  0.4406305124271962  0.0735141965963889  1.0000
  H   H371      1.0  0.9832245239362264  0.4891162001659704  0.06218139343204331  1.0000
  H   H372      1.0  0.9608505215785467  0.4796197844164151  0.09016603675745474  1.0000
  C   C547      1.0  0.008213090549573114  0.3273082685902942  0.19070772211166195  1.0000
  C   C548      1.0  0.028249812653318118  0.3205058721021997  0.21158718887135278  1.0000
  H   H373      1.0  0.02863354637208792  0.3375862132274681  0.17480735658585997  1.0000
  H   H374      1.0  0.003914196361805118  0.3521589103574845  0.19530822190353483  1.0000
  H   H375      1.0  0.01850655983530057  0.3253678019955221  0.22896526357154817  1.0000
  H   H376      1.0  0.017262153346922278  0.2897255574176322  0.21169817369123453  1.0000
  C   C549      1.0  0.7298833292880722  0.16280385803180095  0.19470496570514526  1.0000
  C   C550      1.0  0.7370970614051001  0.20324270075181816  0.2026654414150514  1.0000
  H   H377      1.0  0.7047176890367698  0.14743408802175562  0.18292088394253855  1.0000
  H   H378      1.0  0.7228325505300991  0.1453514737382853  0.21099646321714344  1.0000
  H   H379      1.0  0.7095764273450595  0.20192089286875717  0.20689897527021844  1.0000
  H   H380      1.0  0.7485353942558143  0.2227347088164413  0.18741755922548978  1.0000
  C   C551      1.0  0.8349140237341085  0.20430663981557695  0.4825387258352661  1.0000
  C   C552      1.0  0.855250031687427  0.22180295199344258  0.4580629928958584  1.0000
  H   H381      1.0  0.8287390884440716  0.17493878913139743  0.4845113915047775  1.0000
  H   H382      1.0  0.806404955508085  0.2022040641729942  0.48438429598523547  1.0000
  H   H383      1.0  0.8622862695215611  0.252570963932897  0.4578947255882956  1.0000
  H   H384      1.0  0.8826687500341082  0.22217602872821046  0.45672222466857715  1.0000
  C   C553      1.0  0.34331577997745594  0.3298651954003403  0.1014272368121992  1.0000
  C   C554      1.0  0.3620054686759925  0.3198619279346726  0.08017776098364449  1.0000
  H   H385      1.0  0.3646810289038863  0.3465505516696492  0.1148637393366261  1.0000
  H   H386      1.0  0.32130375736239775  0.3037336005091977  0.11078343613600546  1.0000
  H   H387      1.0  0.3402466529209541  0.30084883916193994  0.0669639441300771  1.0000
  H   H388      1.0  0.3801650781947962  0.34582266692818114  0.0691535672216798  1.0000
  C   C555      1.0  0.28599779445731555  0.5380211966068428  0.12485434221149842  1.0000
  C   C556      1.0  0.29471997704888125  0.539894580810761  0.15237320730895448  1.0000
  H   H389      1.0  0.30587831845805974  0.5674342527645176  0.11788718063953402  1.0000
  H   H390      1.0  0.2570263789434947  0.5341555086459023  0.12309970801072262  1.0000
  H   H391      1.0  0.2975284214179787  0.566649958004788  0.16072785813721488  1.0000
  H   H392      1.0  0.32443467044000457  0.545515178957302  0.1545334731256207  1.0000
  C   C557      1.0  0.28853444673672196  0.416559553128795  0.3898126989017968  1.0000
  C   C558      1.0  0.24740144820831778  0.40610321727747856  0.394359496361469  1.0000
  H   H393      1.0  0.30407521741255744  0.4432765282257677  0.3793479044335911  1.0000
  H   H394      1.0  0.28945839868365275  0.3942767247317505  0.3786891558252607  1.0000
  H   H395      1.0  0.23132794845045984  0.37623514726893575  0.4005030431652463  1.0000
  H   H396      1.0  0.24601631159157683  0.4230921101904645  0.4101461919507791  1.0000
  C   C559      1.0  0.10573257769651055  0.34562757051976556  0.05102348086289851  1.0000
  C   C560      1.0  0.09318841434914221  0.3757572096384617  0.054162919203360256  1.0000
  H   H397      1.0  0.09870245549817636  0.3341126842553296  0.03289930176065931  1.0000
  H   H398      1.0  0.09035746582437734  0.3215362063753368  0.06302971127304276  1.0000
  H   H399      1.0  0.10476750980823855  0.39725585757003423  0.03897625767250761  1.0000
  H   H400      1.0  0.1070933058013385  0.39342529988345976  0.07024712571306312  1.0000
  C   C561      1.0  0.38132658155270965  0.2808763713590018  0.00475140334535729  1.0000
  C   C562      1.0  0.4177548841897355  0.3188624439586698  0.4975986498621249  1.0000
  H   H401      1.0  0.356961108661177  0.2762029607612879  0.49335437554051764  1.0000
  H   H402      1.0  0.37291762498510417  0.28382859000915095  0.023529497846028848  1.0000
  H   H403      1.0  0.43836965003867495  0.3278646925701203  0.011931802326532015  1.0000
  H   H404      1.0  0.4323797269547169  0.31502645665005036  0.4811102437987235  1.0000
  C   C563      1.0  0.5200730553888238  0.5770783118912183  0.4750526207264675  1.0000
  C   C564      1.0  0.5566415941086623  0.5753544841782291  0.47103926643332394  1.0000
  H   H405      1.0  0.5163777823061594  0.5901974638275533  0.45898130277649296  1.0000
  H   H406      1.0  0.5239741044140898  0.5964945523106738  0.49024859066156834  1.0000
  H   H407      1.0  0.556180562779615  0.5581779876362033  0.4554118877628764  1.0000
  H   H408      1.0  0.5612085523177192  0.5605962125073706  0.48593450330810006  1.0000
  C   C565      1.0  0.7514559184516965  0.98815832683512  0.37032054239062806  1.0000
  C   C566      1.0  0.724270433106739  0.9638309649970174  0.35046141994275337  1.0000
  H   H409      1.0  0.7798791984369925  0.991899756638763  0.3663286690303648  1.0000
  H   H410      1.0  0.7418460550043422  0.9741866555594519  0.38802978147272865  1.0000
  H   H411      1.0  0.736662367713718  0.9736850718834219  0.33251410052122893  1.0000
  H   H412      1.0  0.7001393014736599  0.9683925734321767  0.3509805424873616  1.0000
  C   C567      1.0  0.8077589962210456  0.730420011123937  0.4450025857046115  1.0000
  C   C568      1.0  0.7939641764221386  0.6877785077728011  0.43653551799427726  1.0000
  H   H413      1.0  0.8285791304584861  0.7498175703830671  0.4315483614105582  1.0000
  H   H414      1.0  0.8236527762794247  0.7379721141701607  0.4620011639239208  1.0000
  H   H415      1.0  0.7882298468207563  0.6855538727250059  0.41715971653621015  1.0000
  H   H416      1.0  0.7662675465395529  0.6674526386016308  0.44466784116722613  1.0000
  C   C569      1.0  0.5553774530491188  0.970758269663818  0.13087598472117984  1.0000
  C   C570      1.0  0.524913005888262  0.9441065585419801  0.11337099350921646  1.0000
  H   H417      1.0  0.5437410828260031  0.9702740370013396  0.1489917504580409  1.0000
  H   H418      1.0  0.5688073237669107  0.00044114039241760494  0.12484395976060626  1.0000
  H   H419      1.0  0.5198825955226292  0.9144078810515449  0.11420373767387765  1.0000
  H   H420      1.0  0.5352182418293953  0.9539528607837238  0.09461527498029526  1.0000
  C   C571      1.0  0.7944961331539896  0.032121655311961324  0.26708675912319224  1.0000
  C   C572      1.0  0.8158311076707973  0.0636184508061344  0.2485755652135589  1.0000
  H   H421      1.0  0.7741005532123892  0.03934826830542805  0.2764631863254608  1.0000
  H   H422      1.0  0.8142985478091904  0.03465425976702684  0.28155416741810146  1.0000
  H   H423      1.0  0.8016940275997451  0.05630674350631122  0.231038173594501  1.0000
  H   H424      1.0  0.8430202091902536  0.0641490200958341  0.24443153524539316  1.0000
  C   C573      1.0  0.5325984435497124  0.8165051347673612  0.30191093147770404  1.0000
  C   C574      1.0  0.523577242985291  0.7779298483714455  0.31329761598202444  1.0000
  H   H425      1.0  0.5378848080498845  0.8377869019248407  0.3159093394047259  1.0000
  H   H426      1.0  0.5061866048126268  0.8109948864201175  0.2933704705800287  1.0000
  H   H427      1.0  0.5144592056654625  0.7554058202805042  0.2997503076454898  1.0000
  H   H428      1.0  0.4977109067903081  0.7678036320181113  0.3247290524298456  1.0000
  C   C575      1.0  0.6533650437053008  0.8321585092474035  0.03718134672258117  1.0000
  C   C576      1.0  0.65671956714454  0.8206644775499075  0.06277426717954071  1.0000
  H   H429      1.0  0.6762317474652313  0.8620103730035124  0.03381170438475178  1.0000
  H   H430      1.0  0.6266543072486992  0.8326665520937101  0.03548309997061626  1.0000
  H   H431      1.0  0.6355909503291188  0.7898069753763686  0.06527948097671041  1.0000
  H   H432      1.0  0.6851778348665675  0.8235215858135788  0.06454716017326481  1.0000
  C   C577      1.0  0.8244062646043138  0.017750794934432566  0.17002301581008616  1.0000
  C   C578      1.0  0.8519926072501433  0.042118632626859824  0.14953736615320157  1.0000
  H   H433      1.0  0.8260791045269986  0.03534079387790335  0.18566507311800198  1.0000
  H   H434      1.0  0.8344518597188936  0.9990217021933463  0.17729323754343737  1.0000
  H   H435      1.0  0.8458938262343703  0.02652116260679023  0.13222480829829122  1.0000
  H   H436      1.0  0.8801381932786879  0.04499486284300598  0.15337994702994642  1.0000
  C   C579      1.0  0.5909230603868482  0.4703663268878616  0.22939846238463502  1.0000
  C   C580      1.0  0.5557222307712624  0.47387019851039813  0.22454735170915816  1.0000
  H   H437      1.0  0.5927342121135605  0.45060146427750064  0.2160874443097841  1.0000
  H   H438      1.0  0.585237626825798  0.45524120445188015  0.24636839936010388  1.0000
  H   H439      1.0  0.5616797274822586  0.49279101075519643  0.20861207966742565  1.0000
  H   H440      1.0  0.5490730092554534  0.48804548414159354  0.23920808839999044  1.0000
  C   C581      1.0  0.8216771934588762  0.6165859430859821  0.12745102898118357  1.0000
  C   C582      1.0  0.8383270013864812  0.6179338489096454  0.15189382449017488  1.0000
  H   H441      1.0  0.8196002098105949  0.6428746192900892  0.12664746308368485  1.0000
  H   H442      1.0  0.7922209826831033  0.5909871460424365  0.12728383572026492  1.0000
  H   H443      1.0  0.8672459779740959  0.6435383392580559  0.153541233034323  1.0000
  H   H444      1.0  0.8432975255150438  0.593086462535058  0.1532703942722567  1.0000
  C   C583      1.0  0.8185236805493151  0.49606211227329094  0.36932883932265237  1.0000
  C   C584      1.0  0.8132145983496832  0.49016558441864233  0.39736145673149653  1.0000
  H   H445      1.0  0.7935201743876906  0.47112830873926376  0.3611607145949029  1.0000
  H   H446      1.0  0.8428567843053251  0.4932909039437651  0.3630957886318735  1.0000
  H   H447      1.0  0.8134482942617041  0.4639030417314597  0.4026529265310204  1.0000
  H   H448      1.0  0.783738072590208  0.4833043232158108  0.4002703330590426  1.0000
  C   C585      1.0  0.7343570918263613  0.7154878335308799  0.34185114601321687  1.0000
  C   C586      1.0  0.755985333947296  0.7118075170994229  0.36256234546534516  1.0000
  H   H449      1.0  0.7131086249696382  0.6857408415991118  0.3353048317179331  1.0000
  H   H450      1.0  0.7540624532789532  0.7277466891347519  0.3266122142123554  1.0000
  H   H451      1.0  0.7361272543671167  0.6963227330833814  0.37730542573221876  1.0000
  H   H452      1.0  0.7763988722630435  0.7406447197333718  0.3701576453162855  1.0000
  C   C587      1.0  0.6915518346070286  0.7269216033151247  0.24797767924838943  1.0000
  C   C588      1.0  0.7213309112516839  0.7636263023220754  0.2610112352735359  1.0000
  H   H453      1.0  0.6837102078582639  0.7345877405407738  0.23048145941735218  1.0000
  H   H454      1.0  0.6653345340352242  0.7142878920089464  0.259119123102326  1.0000
  H   H455      1.0  0.7491547458462515  0.7716218373471347  0.2524027514217395  1.0000
  H   H456      1.0  0.722222198363127  0.7582642707618585  0.27999321962879675  1.0000
  C   C589      1.0  0.1660670830954244  0.5761275807788756  0.3210683434514876  1.0000
  C   C590      1.0  0.13178346961603568  0.5775727650458883  0.311061808884729  1.0000
  H   H457      1.0  0.1691213391398898  0.5866626000952171  0.3395133044847399  1.0000
  H   H458      1.0  0.19294141919818217  0.5962265192344295  0.31139655342211436  1.0000
  H   H459      1.0  0.10685975616949107  0.5598146405420965  0.32275638676033436  1.0000
  H   H460      1.0  0.12453010980131252  0.5640854412808242  0.2931538711734853  1.0000
  C   C591      1.0  0.09379449249812179  0.7500927656958927  0.4493667952348006  1.0000
  C   C592      1.0  0.06523467974681016  0.7279541135911122  0.4288363936344153  1.0000
  H   H461      1.0  0.09112555678028489  0.7309432975771144  0.4638807455509506  1.0000
  H   H462      1.0  0.08530992415178867  0.7694442558105528  0.4584496496877046  1.0000
  H   H463      1.0  0.06884364054964055  0.7481993857654969  0.41473058104299165  1.0000
  H   H464      1.0  0.07400504145281078  0.7087653916953401  0.4202869823480398  1.0000
  C   C593      1.0  0.34913193961387134  0.9852878936596811  0.3882428007237921  1.0000
  C   C594      1.0  0.34537749328005946  0.9988226479491107  0.3632730063281364  1.0000
  H   H465      1.0  0.34318112033634773  0.001733617246615581  0.4023862049477562  1.0000
  H   H466      1.0  0.3782793610201037  0.9905289624199678  0.39146136050036306  1.0000
  H   H467      1.0  0.3150946399801033  0.98984048672108  0.35992556095428335  1.0000
  H   H468      1.0  0.3540846997365019  0.984880191298981  0.3495753314614393  1.0000
  C   C595      1.0  0.015429754828679643  0.6983078950070036  0.3071665997224273  1.0000
  C   C596      1.0  0.9992348578340864  0.725038383245331  0.30967807879168713  1.0000
  H   H469      1.0  0.003779099916285477  0.6797207068734116  0.2914640377868985  1.0000
  H   H470      1.0  0.004978512743231759  0.6781037584262612  0.32256484844215133  1.0000
  H   H471      1.0  0.011503602093440151  0.7443874094338795  0.3259266144379246  1.0000
  H   H472      1.0  0.006977735748773866  0.7431667843323126  0.2932952873149474  1.0000
  C   C597      1.0  0.3066087591900922  0.7404186473229559  0.4720059084129393  1.0000
  C   C598      1.0  0.33680293580139387  0.7748680981558986  0.4568529003435992  1.0000
  H   H473      1.0  0.31962628324153936  0.724734281803637  0.47884042522436765  1.0000
  H   H474      1.0  0.2842801313355854  0.7198963862142813  0.4600929410530506  1.0000
  H   H475      1.0  0.35348320247815057  0.7652097081624109  0.44609453312602876  1.0000
  H   H476      1.0  0.358690239595973  0.7970472805510176  0.46852062705310416  1.0000
  C   C599      1.0  0.2889003405012724  0.8278446701093829  0.23063182594751458  1.0000
  C   C600      1.0  0.27349551060683003  0.8158291421477096  0.20517692048431121  1.0000
  H   H477      1.0  0.31493032499152834  0.8263883121366498  0.2335442824305407  1.0000
  H   H478      1.0  0.29840345758470954  0.858189009568158  0.2325597396735251  1.0000
  H   H479      1.0  0.24483796383525785  0.8129919660897523  0.2036875758046076  1.0000
  H   H480      1.0  0.2671748144321903  0.7859674772872212  0.20129782202166974  1.0000
  C   C601      1.0  0.259090899622697  0.806649260142877  0.7505124293282694  1.0000
  C   C602      1.0  0.22693657098319633  0.8099820938906643  0.7534732179102763  1.0000
  C   C603      1.0  0.2003175061058056  0.7900629214634632  0.7713757853883002  1.0000
  C   C604      1.0  0.2056238478604528  0.7660679574987231  0.7868366868289252  1.0000
  C   C605      1.0  0.23986702906552151  0.7661529905637583  0.784364589469946  1.0000
  C   C606      1.0  0.2654084566511469  0.7842708891017883  0.7657066091856302  1.0000
  H   H481      1.0  0.22124101436757995  0.8268889219376967  0.7414653764301662  1.0000
  H   H482      1.0  0.17528486557093872  0.7930661371103004  0.7725500763857588  1.0000
  H   H483      1.0  0.24658030267584644  0.7507336864332635  0.7972817904419907  1.0000
  H   H484      1.0  0.29062383532162994  0.7823664439254893  0.7646540434744937  1.0000
  C   C607      1.0  0.1691344787912893  0.6783080521136744  0.7885139896713317  1.0000
  C   C608      1.0  0.15966876197254343  0.6960414197095346  0.8069070384501232  1.0000
  C   C609      1.0  0.1376108829558816  0.6725340732673009  0.8259749465369054  1.0000
  C   C610      1.0  0.12804439470901052  0.6343505835302929  0.8268878861843196  1.0000
  C   C611      1.0  0.14009924946449195  0.6187099011190966  0.8091571661693389  1.0000
  C   C612      1.0  0.15984721571573218  0.6406567544389692  0.7896363684143296  1.0000
  C   C613      1.0  0.17469277671695738  0.7417372883681256  0.8078951613626189  1.0000
  C   C614      1.0  0.13463944649956622  0.7405365928999049  0.8061211943222506  1.0000
  C   C615      1.0  0.11529176651552371  0.7432963122632295  0.8265996836681752  1.0000
  C   C616      1.0  0.07751644155862102  0.7304901461809978  0.8270024511596816  1.0000
  C   C617      1.0  0.05815081834618418  0.7181625041447175  0.8063234731068739  1.0000
  C   C618      1.0  0.07644313549480856  0.7183187469324649  0.7851056816543177  1.0000
  C   C619      1.0  0.1140051743656969  0.7280278849416912  0.7850913610323975  1.0000
  C   C620      1.0  0.2082031006010823  0.746663483332995  0.8479588912621937  1.0000
  C   C621      1.0  0.21947470273194158  0.7629300413750343  0.870259679747467  1.0000
  C   C622      1.0  0.22777864066984393  0.8003440963155085  0.8754347944938888  1.0000
  C   C623      1.0  0.22015868881304806  0.8187492391666104  0.8577362958782286  1.0000
  C   C624      1.0  0.20562520912445892  0.8014099507857942  0.8359331490046831  1.0000
  C   C625      1.0  0.19740250267606413  0.7637525004323827  0.8313720309230909  1.0000
  C   C626      1.0  0.24339901541236714  0.8197486178541645  0.9009935244660141  1.0000
  C   C627      1.0  0.13486304283222839  0.7713920386638657  0.9399474061667714  1.0000
  C   C628      1.0  0.156804379272618  0.7544018605032341  0.9418377282602411  1.0000
  C   C629      1.0  0.19251626111607006  0.7707192621856794  0.9308162196148866  1.0000
  C   C630      1.0  0.20568563650766097  0.8032839034917565  0.9169413270519267  1.0000
  C   C631      1.0  0.18232718941337195  0.8189373331948993  0.9152139020327992  1.0000
  C   C632      1.0  0.14845327710418624  0.8041769743180888  0.926924590608065  1.0000
  C   C633      1.0  0.2692828638578577  0.86418647624285  0.89694257854033  1.0000
  C   C634      1.0  0.3001915355913329  0.8782666478500535  0.8806761421166919  1.0000
  C   C635      1.0  0.32458063160661127  0.9163396060503152  0.8772195020006972  1.0000
  C   C636      1.0  0.3212465341877841  0.9423757089004622  0.8912179099277191  1.0000
  C   C637      1.0  0.2926116918216306  0.9294521510974448  0.9085512326844137  1.0000
  C   C638      1.0  0.267065757058351  0.8911609205672507  0.9113652348917383  1.0000
  C   C639      1.0  0.28664481177009266  0.8268875953618264  0.9360521970044696  1.0000
  C   C640      1.0  0.3110300926747756  0.8196162966765398  0.9484359548099859  1.0000
  C   C641      1.0  0.3208756109425796  0.7935176479749385  0.9395356882865648  1.0000
  C   C642      1.0  0.31129351656966797  0.7802305974541265  0.9162503570442758  1.0000
  C   C643      1.0  0.29085806113095575  0.7922131494737171  0.9029661901355251  1.0000
  C   C644      1.0  0.2745592527149291  0.8122930621633225  0.9132895684622689  1.0000
  H   H485      1.0  0.1862702727595659  0.6952197861239069  0.773452275566733  1.0000
  H   H486      1.0  0.12801873058080995  0.683765628394968  0.8405766106623167  1.0000
  H   H487      1.0  0.11275633508391088  0.6164398284596736  0.8417705925149157  1.0000
  H   H488      1.0  0.16806054185029343  0.6286504809792872  0.7743419442035271  1.0000
  H   H489      1.0  0.12979908679567476  0.7531635306194732  0.8429592041342944  1.0000
  H   H490      1.0  0.06267142819748411  0.7290874518574656  0.8440815828772923  1.0000
  H   H491      1.0  0.059423412037673595  0.7056625941612976  0.7695821274927918  1.0000
  H   H492      1.0  0.12638333567249438  0.7225635162737323  0.7691328179800446  1.0000
  H   H493      1.0  0.20594873729570803  0.7190554745265355  0.8450893966449281  1.0000
  H   H494      1.0  0.22156184829362952  0.745301483121268  0.8837980376953016  1.0000
  H   H495      1.0  0.225419799739908  0.8479785385946808  0.8605288171526727  1.0000
  H   H496      1.0  0.2003176212018239  0.8171800526947259  0.8228405204141157  1.0000
  H   H497      1.0  0.14514418449506503  0.7270185077117991  0.9509581743456859  1.0000
  H   H498      1.0  0.2066453343842517  0.7547620075295729  0.932538274400794  1.0000
  H   H499      1.0  0.18918400885391687  0.8418663567576508  0.902438117202217  1.0000
  H   H500      1.0  0.1306161504790819  0.8163698634983478  0.9232567213187469  1.0000
  H   H501      1.0  0.3044403070500811  0.8582853927292285  0.8698855534998011  1.0000
  H   H502      1.0  0.3474947751288895  0.925940832867527  0.8642468086187117  1.0000
  H   H503      1.0  0.2901757913575769  0.9496424163770619  0.920806104892648  1.0000
  H   H504      1.0  0.24717049301271085  0.8829705104711741  0.9265039223391583  1.0000
  H   H505      1.0  0.27715951762540203  0.8447504850302402  0.9453015286871962  1.0000
  H   H506      1.0  0.3174833642722827  0.8292467417674421  0.9663922246202105  1.0000
  H   H507      1.0  0.32009214111843415  0.7607815020147656  0.9092278820701446  1.0000
  H   H508      1.0  0.28548771767503045  0.7826324565812752  0.8848201720848577  1.0000
  C   C645      1.0  0.8120409718797681  0.616428804265061  0.6726197025797713  1.0000
  C   C646      1.0  0.809641111839104  0.648052169247938  0.6790919076566179  1.0000
  C   C647      1.0  0.7884775428681529  0.6472289753905663  0.6986091252561469  1.0000
  C   C648      1.0  0.7662836995740394  0.6137318563112708  0.7114797842069509  1.0000
  C   C649      1.0  0.767427831028177  0.5812182848321384  0.7039292362995114  1.0000
  C   C650      1.0  0.7900119642835552  0.5828651888028799  0.6848362671243687  1.0000
  H   H509      1.0  0.826100199165621  0.6743305741198515  0.6698035522791587  1.0000
  H   H510      1.0  0.7891323091196061  0.673236427190884  0.7048905080459067  1.0000
  H   H511      1.0  0.7523128155226171  0.554697760762379  0.7133701063004211  1.0000
  H   H512      1.0  0.788857712887869  0.5564185442239437  0.6799636755160118  1.0000
  C   C651      1.0  0.6802351462026955  0.5609242015806479  0.7123855635434054  1.0000
  C   C652      1.0  0.6978797810897779  0.5752457471950304  0.7338843972011461  1.0000
  C   C653      1.0  0.6769277746031358  0.5569320808228557  0.7545275736991531  1.0000
  C   C654      1.0  0.6424190912543771  0.5244658199311567  0.7527679272807053  1.0000
  C   C655      1.0  0.627111966067173  0.5091797982045151  0.731106196548622  1.0000
  C   C656      1.0  0.6451408424096624  0.5290292859239716  0.7107351118670993  1.0000
  C   C657      1.0  0.7400020512314298  0.6118391741666076  0.7345019740214557  1.0000
  C   C658      1.0  0.7272567244447388  0.6431941890179221  0.7384097137279378  1.0000
  C   C659      1.0  0.7216189387122026  0.6546157462733365  0.7611150597824575  1.0000
  C   C660      1.0  0.7125827237137522  0.6831258548873079  0.763920111601082  1.0000
  C   C661      1.0  0.7043187082474128  0.6975458316975371  0.7445586307649351  1.0000
  C   C662      1.0  0.7070762884926846  0.6845993723873042  0.7224153691207844  1.0000
  C   C663      1.0  0.7174954299113184  0.657238736963714  0.7196407486237404  1.0000
  C   C664      1.0  0.7618104775720931  0.5830791400484703  0.7687390008772385  1.0000
  C   C665      1.0  0.7825981873925001  0.5880962991773586  0.7888379937422769  1.0000
  C   C666      1.0  0.8110352738463689  0.6241747758175399  0.7954845523910021  1.0000
  C   C667      1.0  0.8189047581460774  0.654614686786169  0.7805964758271863  1.0000
  C   C668      1.0  0.7976586256550515  0.649129682071318  0.7607194526019112  1.0000
  C   C669      1.0  0.7673329703823767  0.613593435393348  0.7550252153108811  1.0000
  C   C670      1.0  0.8327649122935921  0.6324604751562839  0.819899422687249  1.0000
  C   C671      1.0  0.7776550933101679  0.6912884289134059  0.8536495483977437  1.0000
  C   C672      1.0  0.7581009308612161  0.6525322468079902  0.8510485654414824  1.0000
  C   C673      1.0  0.7759166847673472  0.6346212110945751  0.8403743318776936  1.0000
  C   C674      1.0  0.8143029326003367  0.6543586074848734  0.8336239487200464  1.0000
  C   C675      1.0  0.8332745954910526  0.6940479555894534  0.8370036154932201  1.0000
  C   C676      1.0  0.8151042312236549  0.7121261826749494  0.8468884247736566  1.0000
  C   C677      1.0  0.877816281084395  0.6567876906681567  0.817183874755626  1.0000
  C   C678      1.0  0.8969048044047361  0.6625365582281588  0.7955257241790228  1.0000
  C   C679      1.0  0.9354487277784707  0.6859882233434925  0.7926562295617573  1.0000
  C   C680      1.0  0.9566131317599523  0.7030399359869723  0.8131687303847425  1.0000
  C   C681      1.0  0.9391204366277954  0.6959678742526116  0.8352063774422316  1.0000
  C   C682      1.0  0.9000322982596067  0.6740385503631346  0.8369517032387592  1.0000
  C   C683      1.0  0.8371638926699513  0.5697026892302642  0.8216823401163174  1.0000
  C   C684      1.0  0.8336364825702816  0.5389097062353022  0.8338387580488497  1.0000
  C   C685      1.0  0.8202427030867062  0.5310207039798212  0.8573406886976823  1.0000
  C   C686      1.0  0.8124069153791075  0.5568044662372501  0.8683550370320768  1.0000
  C   C687      1.0  0.8176331708845097  0.5891774386545633  0.8571867420120399  1.0000
  C   C688      1.0  0.8283586642441323  0.5955748821440764  0.8332480323946404  1.0000
  H   H513      1.0  0.69326625487381  0.5759725385054015  0.6957736421159422  1.0000
  H   H514      1.0  0.6892210344853225  0.5671233005627893  0.7720918164843115  1.0000
  H   H515      1.0  0.6285345884190562  0.5093727538055016  0.7694962037612704  1.0000
  H   H516      1.0  0.6319658338268671  0.5178257074140019  0.6936882015488092  1.0000
  H   H517      1.0  0.7279535683381761  0.6443022141768465  0.7771881678101722  1.0000
  H   H518      1.0  0.7127426204204088  0.6947885210584338  0.781915763121587  1.0000
  H   H519      1.0  0.6993331673589442  0.693928512265701  0.7067879904503367  1.0000
  H   H520      1.0  0.7181457609483158  0.6480792797581071  0.7014911504175928  1.0000
  H   H521      1.0  0.7392907661846085  0.5546903061662757  0.7639505429226623  1.0000
  H   H522      1.0  0.7742084480136643  0.56222999225303  0.7989573032066573  1.0000
  H   H523      1.0  0.84019933647176  0.6832875240217374  0.7851182121984979  1.0000
  H   H524      1.0  0.803584860937394  0.6731735343372013  0.7500255281829818  1.0000
  H   H525      1.0  0.7279957289082956  0.6360104368536496  0.854848900483563  1.0000
  H   H526      1.0  0.7588067788694035  0.6047996376788596  0.8353048317179331  1.0000
  H   H527      1.0  0.8621972313289119  0.7119856223316645  0.8302514422578332  1.0000
  H   H528      1.0  0.8317189632127863  0.7433496987313921  0.8490490486058709  1.0000
  H   H529      1.0  0.8816437763851972  0.6492960040605079  0.7794311352184278  1.0000
  H   H530      1.0  0.9487309571993644  0.6895171504646903  0.7749648912570569  1.0000
  H   H531      1.0  0.9549442892368494  0.7059224110793282  0.8514083710672284  1.0000
  H   H532      1.0  0.8875190510368585  0.6675089918309336  0.8546269308437993  1.0000
  H   H533      1.0  0.8480843991955539  0.5747547586835035  0.8035434823766099  1.0000
  H   H534      1.0  0.8432859548073532  0.5213940054264043  0.8243370254047794  1.0000
  H   H535      1.0  0.8032664857910566  0.5522526189470219  0.8869539447509716  1.0000
  H   H536      1.0  0.8128396742552848  0.6079779450363262  0.8685662662054003  1.0000
  C   C689      1.0  0.6528818422623187  0.8460925768160239  0.581474672306295  1.0000
  C   C690      1.0  0.6761967491883518  0.8852357089837904  0.5814113035542979  1.0000
  C   C691      1.0  0.6783926286412268  0.90665691350326  0.6012442908671682  1.0000
  C   C692      1.0  0.6571030757546055  0.8899980405837444  0.6217186630342907  1.0000
  C   C693      1.0  0.6300860266459997  0.8511152366317201  0.6205472361612161  1.0000
  C   C694      1.0  0.6284313546465669  0.8295500377971016  0.6006412136765527  1.0000
  H   H537      1.0  0.6938274725327033  0.900180753403643  0.5659738521320674  1.0000
  H   H538      1.0  0.6979796927380449  0.9374556117560138  0.6000691048308396  1.0000
  H   H539      1.0  0.6115876759366614  0.8359544991754306  0.6350155394949955  1.0000
  H   H540      1.0  0.6076652108302334  0.7994676972588329  0.6006199117514465  1.0000
  C   C695      1.0  0.5967197667268311  0.9102990986969541  0.6493082362024779  1.0000
  C   C696      1.0  0.634435881323783  0.9302140637269315  0.6407654482037404  1.0000
  C   C697      1.0  0.6453496455699698  0.9632600332568345  0.6274714358674199  1.0000
  C   C698      1.0  0.6204512648204474  0.9764818629388088  0.6241132500271267  1.0000
  C   C699      1.0  0.5837784589023207  0.9568642162626619  0.6331748025549243  1.0000
  C   C700      1.0  0.572659609047336  0.9241763858409255  0.6458664537317254  1.0000
  C   C701      1.0  0.6635307660731912  0.9151975210274398  0.6449382984235206  1.0000
  C   C702      1.0  0.707898869096384  0.9461045666495502  0.6484552641593544  1.0000
  C   C703      1.0  0.7201231248275871  0.9812045559171064  0.6591275286376294  1.0000
  C   C704      1.0  0.7566282485653596  0.0038677390922186024  0.6672004212296094  1.0000
  C   C705      1.0  0.7833290204186338  0.99338353610559  0.6620335408407916  1.0000
  C   C706      1.0  0.7730729865405834  0.9599673271292795  0.649445535165138  1.0000
  C   C707      1.0  0.7356852385577887  0.936281173424412  0.6437591742161638  1.0000
  C   C708      1.0  0.6505845512768148  0.915390847772473  0.6901939698002738  1.0000
  C   C709      1.0  0.651278346174529  0.904866248268836  0.7129011059325334  1.0000
  C   C710      1.0  0.6600302623407797  0.8768373050025425  0.7174872851024863  1.0000
  C   C711      1.0  0.6622312031994289  0.8557427092058987  0.6982385791639613  1.0000
  C   C712      1.0  0.6605851097021677  0.8656199958057827  0.6755681396253721  1.0000
  C   C713      1.0  0.6556109273283731  0.8962338645565767  0.6706839125117047  1.0000
  C   C714      1.0  0.6741046508987965  0.8756511571848529  0.7436385308065607  1.0000
  C   C715      1.0  0.768538951147607  0.9902671071335447  0.7592587491660482  1.0000
  C   C716      1.0  0.7493040160783982  0.9650827493851755  0.7773814962060953  1.0000
  C   C717      1.0  0.7206639896297004  0.928173262536868  0.7722260723148137  1.0000
  C   C718      1.0  0.7103887209134514  0.9161127675775155  0.7489407410725247  1.0000
  C   C719      1.0  0.7339151837753178  0.9410949681080442  0.7309540399407196  1.0000
  C   C720      1.0  0.7617296111647737  0.9774660677687496  0.7361488455422819  1.0000
  C   C721      1.0  0.6886203555589079  0.8466102322947436  0.7484842712488174  1.0000
  C   C722      1.0  0.6773746796870572  0.824873405721541  0.7692778142769869  1.0000
  C   C723      1.0  0.6881493770311309  0.7989478726739776  0.7732625273262901  1.0000
  C   C724      1.0  0.7125179483293463  0.7953153652179248  0.7576655799774228  1.0000
  C   C725      1.0  0.7268161114318302  0.8190112942503297  0.7379460835932704  1.0000
  C   C726      1.0  0.7156302843633489  0.8446651796307042  0.7337268703600236  1.0000
  C   C727      1.0  0.6024451996385144  0.8273666360898911  0.7523579994782388  1.0000
  C   C728      1.0  0.5690678265488605  0.8125229082727906  0.7655258113338874  1.0000
  C   C729      1.0  0.565999747467596  0.8327695400162852  0.7845095857668883  1.0000
  C   C730      1.0  0.5971446081675305  0.8687065064308901  0.7895593950715082  1.0000
  C   C731      1.0  0.6297966078517881  0.8830678665753088  0.776296709095638  1.0000
  C   C732      1.0  0.6341180858266479  0.8622679026893161  0.7578821793839663  1.0000
  H   H541      1.0  0.5861915601123454  0.8825310991060007  0.657769575664044  1.0000
  H   H542      1.0  0.6728699595159578  0.9785847805533956  0.6196018961067071  1.0000
  H   H543      1.0  0.6289699943794841  0.0012277553083936965  0.6128176804797737  1.0000
  H   H544      1.0  0.544258135858921  0.9086871766691945  0.6530271227073867  1.0000
  H   H545      1.0  0.6997917196217356  0.9899320659825946  0.6631104516091926  1.0000
  H   H546      1.0  0.7642656804468997  0.02989275607960332  0.6771151248083045  1.0000
  H   H547      1.0  0.7956234848302873  0.9533840940619531  0.645532067209888  1.0000
  H   H548      1.0  0.7267785320892122  0.9079658572304343  0.6367900435586854  1.0000
  H   H549      1.0  0.647981119346598  0.9401113354815707  0.6878435977276164  1.0000
  H   H550      1.0  0.6491403478899382  0.9219730692901147  0.7269514261140162  1.0000
  H   H551      1.0  0.6674060297614386  0.8320971558628584  0.7012101082124083  1.0000
  H   H552      1.0  0.6638417663257329  0.8498295676222085  0.6610275171508956  1.0000
  H   H553      1.0  0.7561682927251493  0.9745371434564939  0.7958031862287273  1.0000
  H   H554      1.0  0.7048542883442361  0.9093595781128025  0.7870872977125292  1.0000
  H   H555      1.0  0.7305827184763647  0.9340630225834173  0.7123247009002444  1.0000
  H   H556      1.0  0.7771244977791945  0.9966667947003259  0.7218980366539162  1.0000
  H   H557      1.0  0.6609164669795233  0.8297222772698276  0.7826317942175985  1.0000
  H   H558      1.0  0.6774365874420796  0.7821618794213689  0.789178108512882  1.0000
  H   H559      1.0  0.7451980108283539  0.8156220257885942  0.7249841306777252  1.0000
  H   H560      1.0  0.7276293878891336  0.8631170605728347  0.7181979459652774  1.0000
  H   H561      1.0  0.6044505876848024  0.8086477297386442  0.7387444582653231  1.0000
  H   H562      1.0  0.5464276830839581  0.785295447805117  0.759625715102754  1.0000
  H   H563      1.0  0.5956049720548233  0.8854017555813537  0.8049111017699916  1.0000
  H   H564      1.0  0.6509837304551578  0.911244500306877  0.781665152237983  1.0000
  C   C733      1.0  0.6572000902042381  0.8067249484097805  0.5182120719192745  1.0000
  C   C734      1.0  0.6928372986964506  0.8151792624899606  0.5097980296604182  1.0000
  C   C735      1.0  0.6960548865303612  0.7948923023836731  0.990792774294537  1.0000
  C   C736      1.0  0.6648638657546568  0.7636961578546544  0.981078022399403  1.0000
  C   C737      1.0  0.62961344390455  0.7560900441570011  0.9899496476789836  1.0000
  C   C738      1.0  0.6255251560569449  0.777421312588077  0.5078880167118079  1.0000
  H   H565      1.0  0.7188189694787172  0.8383880842817851  0.5169302867535273  1.0000
  H   H566      1.0  0.7245373216996178  0.8030266953614349  0.9843968265294156  1.0000
  H   H567      1.0  0.6043750128167297  0.7333679641312953  0.982900321538752  1.0000
  H   H568      1.0  0.5971328378398628  0.7704492503564554  0.5142906560188588  1.0000
  C   C739      1.0  0.6305874702926747  0.6776923631321561  0.9850663156041863  1.0000
  C   C740      1.0  0.6408073865603086  0.6947030959881576  0.9624486833589279  1.0000
  C   C741      1.0  0.6272126144950755  0.6700776926117563  0.9425895609110533  1.0000
  C   C742      1.0  0.601994960092811  0.632235097069843  0.9455664601927203  1.0000
  C   C743      1.0  0.5896002473988556  0.6168552718377288  0.968212733681819  1.0000
  C   C744      1.0  0.6056578276675739  0.6400370428573504  0.9878498864899302  1.0000
  C   C745      1.0  0.6683504605048741  0.7390722711583448  0.9592981465364778  1.0000
  C   C746      1.0  0.707612440798349  0.7404866294270879  0.95500375003815  1.0000
  C   C747      1.0  0.7233089331567955  0.741029751966031  0.9320048312342655  1.0000
  C   C748      1.0  0.7566416194776441  0.7403452970830937  0.9287880615354344  1.0000
  C   C749      1.0  0.773988224562449  0.736586783032316  0.9485236686192471  1.0000
  C   C750      1.0  0.7603127958998962  0.7374650863060027  0.971225434518287  1.0000
  C   C751      1.0  0.727982605626681  0.7395179169639137  0.9742900476092156  1.0000
  C   C752      1.0  0.6259903739763585  0.7431667157093977  0.9256769064232653  1.0000
  C   C753      1.0  0.624273915281665  0.7567416185361284  0.9033814881712118  1.0000
  C   C754      1.0  0.6539219303359386  0.790089549270113  0.8943523360505089  1.0000
  C   C755      1.0  0.6850113629204172  0.8104354036493099  0.909068565151282  1.0000
  C   C756      1.0  0.6882852277286716  0.7962655664668504  0.9305924598973832  1.0000
  C   C757      1.0  0.6592908636541082  0.7605416811427301  0.938411519465827  1.0000
  C   C758      1.0  0.6550508498709936  0.7994676732873512  0.8659885542597594  1.0000
  C   C759      1.0  0.7149244972585189  0.7384131960884234  0.8473968068518247  1.0000
  C   C760      1.0  0.6761579509037512  0.7200611146721863  0.845954004193362  1.0000
  C   C761      1.0  0.6568624473233126  0.7393450274165626  0.8510056035757217  1.0000
  C   C762      1.0  0.6767172841106442  0.7778245268209312  0.8573030970651417  1.0000
  C   C763      1.0  0.7160276640028999  0.7958022731846462  0.858264368811537  1.0000
  C   C764      1.0  0.7347711024449333  0.776576384691197  0.8532861626165182  1.0000
  C   C765      1.0  0.6757517359242229  0.8441533075825434  0.8608868327006786  1.0000
  C   C766      1.0  0.6673199409710454  0.8659760146613772  0.8762976119645828  1.0000
  C   C767      1.0  0.6833470894046652  0.9043059835913243  0.873340403538056  1.0000
  C   C768      1.0  0.7079934701600916  0.9217458918836059  0.8539162699810081  1.0000
  C   C769      1.0  0.713885462653695  0.899558181052218  0.8372094744333235  1.0000
  C   C770      1.0  0.6975752597704566  0.8609787018704038  0.8404441449095543  1.0000
  C   C771      1.0  0.6123885072747305  0.7771147708136473  0.8280156351605377  1.0000
  C   C772      1.0  0.5818261986500719  0.7730528960595237  0.815735701863943  1.0000
  C   C773      1.0  0.5554855946960668  0.7787864500130438  0.8275179935488097  1.0000
  C   C774      1.0  0.5569364531641376  0.7838204177258772  0.8520295280430181  1.0000
  C   C775      1.0  0.5874103298977649  0.7877626350592255  0.8640857016221092  1.0000
  C   C776      1.0  0.6165125643334841  0.7859362304445364  0.8521190319300196  1.0000
  H   H569      1.0  0.6429947708663392  0.6935208209026742  0.5008744921263768  1.0000
  H   H570      1.0  0.6350322989661865  0.680245566753001  0.9244900848816264  1.0000
  H   H571      1.0  0.5908154697885102  0.6155104265997199  0.9298388371688312  1.0000
  H   H572      1.0  0.5985723082834815  0.6279883472249266  0.505562705727511  1.0000
  H   H573      1.0  0.7089898250556376  0.742841594710315  0.9163416510090172  1.0000
  H   H574      1.0  0.7664547930188288  0.7386234795916852  0.9104379746224037  1.0000
  H   H575      1.0  0.7733686440893319  0.7332687729976742  0.986874294121615  1.0000
  H   H576      1.0  0.7166224966388399  0.7362747621058643  0.9924915580698236  1.0000
  H   H577      1.0  0.6017589000487017  0.7167739227003637  0.9314284262019763  1.0000
  H   H578      1.0  0.5997570162773489  0.7387900674179765  0.8929632357242469  1.0000
  H   H579      1.0  0.7095577394962482  0.8366684467010078  0.9025025600008579  1.0000
  H   H580      1.0  0.7140280284626254  0.8119328884281135  0.9400995627746738  1.0000
  H   H581      1.0  0.6595622086298712  0.6907440605643488  0.8411959775603666  1.0000
  H   H582      1.0  0.6254502377069677  0.723252976126388  0.8509357905438609  1.0000
  H   H583      1.0  0.7324202810573713  0.8253784576089597  0.8631477008863343  1.0000
  H   H584      1.0  0.7653113609039144  0.7918523484130572  0.8555022788586732  1.0000
  H   H585      1.0  0.6479616921827285  0.853069557935005  0.8912465511715596  1.0000
  H   H586      1.0  0.677099736470741  0.9205303962422348  0.8868232690759493  1.0000
  H   H587      1.0  0.7325087275292314  0.9124479239139195  0.8220135044982226  1.0000
  H   H588      1.0  0.7014587557751724  0.8434166735893244  0.8267375196541572  1.0000
  H   H589      1.0  0.634786415316245  0.7749641189232813  0.8177871309540156  1.0000
  H   H590      1.0  0.5812566815044297  0.7680151529433944  0.7967698282083426  1.0000
  H   H591      1.0  0.5326612946633459  0.7827284446216104  0.8615169400651685  1.0000
  H   H592      1.0  0.590733752523989  0.7941666485834121  0.8829781820903686  1.0000
  C   C777      1.0  0.3076257170022245  0.41993389740623455  0.9136959161092553  1.0000
  C   C778      1.0  0.30627322434013643  0.3887095421641646  0.9239154699270774  1.0000
  C   C779      1.0  0.3273821359373294  0.39243671214988923  0.9433807752721456  1.0000
  C   C780      1.0  0.34976452448466167  0.42751538411873585  0.9542196959880175  1.0000
  C   C781      1.0  0.34871865630751997  0.4589564796989842  0.9450777689696924  1.0000
  C   C782      1.0  0.32853247321708906  0.4552597353714672  0.9246082300124682  1.0000
  H   H593      1.0  0.28993031286824195  0.36213586460317265  0.9150868065132571  1.0000
  H   H594      1.0  0.32698631013819013  0.36670505726427793  0.9496370969735448  1.0000
  H   H595      1.0  0.36507765700067624  0.486797522023691  0.953680882588269  1.0000
  H   H596      1.0  0.32989978268844045  0.4802340536711403  0.9173816861759738  1.0000
  C   C783      1.0  0.43476224374327  0.48511679831842286  0.9576942368814126  1.0000
  C   C784      1.0  0.4139961331152206  0.4709309873438597  0.9787509213373661  1.0000
  C   C785      1.0  0.43020046513775184  0.49062497626258944  0.9998595180477806  1.0000
  C   C786      1.0  0.4651565590893352  0.5240567663893845  0.5001101289313846  1.0000
  C   C787      1.0  0.48406556560983116  0.5379738473274017  0.9788243145247073  1.0000
  C   C788      1.0  0.46908700885969584  0.5179054634143193  0.958118485305799  1.0000
  C   C789      1.0  0.37269920254511096  0.4334569524137703  0.9780492108632751  1.0000
  C   C790      1.0  0.3847484030047735  0.40217450970357965  0.9837362878433451  1.0000
  C   C791      1.0  0.38375164156549557  0.38971206729012525  0.5068095810285097  1.0000
  C   C792      1.0  0.393591970285738  0.363010223285674  0.5114207496837132  1.0000
  C   C793      1.0  0.4083121969661314  0.35002412427862734  0.9933543755405175  1.0000
  C   C794      1.0  0.41235935011261377  0.36419260119961455  0.9705022431113154  1.0000
  C   C795      1.0  0.4005491030366869  0.38979767571591384  0.9656797736796792  1.0000
  C   C796      1.0  0.344936389717717  0.4629970826637162  0.5104944918579128  1.0000
  C   C797      1.0  0.3216391134317025  0.45778438618752837  0.5298058684181163  1.0000
  C   C798      1.0  0.2922699387640989  0.4220477366194602  0.5360059816784786  1.0000
  C   C799      1.0  0.2854791989352606  0.39251001404763675  0.5205615489530618  1.0000
  C   C800      1.0  0.3106465969686817  0.3966401743003556  0.5032749863757549  1.0000
  C   C801      1.0  0.34227044932670764  0.4321585223105243  0.9976165506395251  1.0000
  C   C802      1.0  0.2718627324430746  0.4124112479780535  0.5616522464520909  1.0000
  C   C803      1.0  0.32396135060125253  0.3506876997365761  0.5927897537010143  1.0000
  C   C804      1.0  0.34462793167843847  0.3887360981925341  0.5867892341086653  1.0000
  C   C805      1.0  0.32776446802059817  0.4073934531728349  0.5777013674380893  1.0000
  C   C806      1.0  0.28918422927641124  0.3878769207138817  0.5728957247372091  1.0000
  C   C807      1.0  0.26872556753083765  0.3485890559478659  0.5769652874713895  1.0000
  C   C808      1.0  0.28605487969630927  0.3308776725361894  0.5872677218885748  1.0000
  C   C809      1.0  0.22663318532776228  0.39129884302158524  0.5586658597584017  1.0000
  C   C810      1.0  0.21220081263563856  0.40047673745544304  0.5392460223879298  1.0000
  C   C811      1.0  0.17381878056362304  0.38460513732614326  0.536482500372874  1.0000
  C   C812      1.0  0.14853898507813687  0.36121739961093613  0.5533944388295661  1.0000
  C   C813      1.0  0.16216681698879615  0.3512824719697646  0.5724691492117604  1.0000
  C   C814      1.0  0.20056497765262998  0.3662474159135813  0.5754188393117791  1.0000
  C   C815      1.0  0.2843702226118987  0.44720700280019643  0.6034444754174372  1.0000
  C   C816      1.0  0.2906480611627315  0.47747764659597497  0.6179238772332046  1.0000
  C   C817      1.0  0.28895040523524507  0.5080247295015636  0.6090903806094866  1.0000
  C   C818      1.0  0.28222116715344275  0.5082646235660075  0.5846636958001555  1.0000
  C   C819      1.0  0.2760433745854194  0.4775695512715514  0.5704508365598784  1.0000
  C   C820      1.0  0.2796394481710813  0.44752695389764485  0.5789986367762876  1.0000
  H   H597      1.0  0.4237989025365338  0.470884155225919  0.9406544868740825  1.0000
  H   H598      1.0  0.41581597388221747  0.4794086712868028  0.5169465227586293  1.0000
  H   H599      1.0  0.4767201343778528  0.5389972696812823  0.5166860664474552  1.0000
  H   H600      1.0  0.4837080909732241  0.5294740960322513  0.9411431780971102  1.0000
  H   H601      1.0  0.3732347240042806  0.39936361465526454  0.5216085654232043  1.0000
  H   H602      1.0  0.3906214209464356  0.354213294265111  0.5296341999628476  1.0000
  H   H603      1.0  0.4228860841502392  0.3533836846798785  0.9563391480322111  1.0000
  H   H604      1.0  0.4032191193145024  0.40008035710244455  0.9478953513324971  1.0000
  H   H605      1.0  0.3673801687386497  0.4927787470817752  0.5075713844123335  1.0000
  H   H606      1.0  0.32943281421057824  0.4818257064316722  0.5411123574396834  1.0000
  H   H607      1.0  0.26311228787875335  0.3639707279156151  0.5251235620735241  1.0000
  H   H608      1.0  0.30723031214741076  0.3715133943414703  0.9932254899432356  1.0000
  H   H609      1.0  0.3744486029323823  0.4052980430714407  0.5907080722971352  1.0000
  H   H610      1.0  0.34613846078375393  0.4371785258085371  0.5730534305861056  1.0000
  H   H611      1.0  0.238721328627524  0.33011446178669457  0.5726282871228489  1.0000
  H   H612      1.0  0.2693775789721401  0.30041822242420996  0.5909300419368987  1.0000
  H   H613      1.0  0.23003178975027855  0.42183471246971926  0.525814532081175  1.0000
  H   H614      1.0  0.16344404527518303  0.39149462264438883  0.5204679278872583  1.0000
  H   H615      1.0  0.1426637326160089  0.3299449945316942  0.584758569920377  1.0000
  H   H616      1.0  0.21034532885723045  0.35911479386960893  0.5911836959526608  1.0000
  H   H617      1.0  0.2836270841533029  0.42297859039245744  0.6119414374260298  1.0000
  H   H618      1.0  0.29374027324162616  0.4749125804922537  0.6369017444096633  1.0000
  H   H619      1.0  0.27884431198551574  0.5301748949433979  0.5761955540431773  1.0000
  H   H620      1.0  0.26867591797208534  0.47794635870755203  0.552190969564945  1.0000
  C   C821      1.0  0.8575259670171851  0.22791762565041204  0.5038299104751637  1.0000
  C   C822      1.0  0.8891862459603326  0.22727107282823858  0.5104460378023085  1.0000
  C   C823      1.0  0.9122764412071082  0.25176361303426065  0.5276251957152137  1.0000
  C   C824      1.0  0.9018374854758371  0.2749223830820972  0.540516440560028  1.0000
  C   C825      1.0  0.8671949077802136  0.2719110907409683  0.5359231010791152  1.0000
  C   C826      1.0  0.84573727289323  0.24942470538741865  0.5172806765703604  1.0000
  H   H621      1.0  0.8981998397566555  0.2090280655660678  0.5021347068553568  1.0000
  H   H622      1.0  0.9376630547443057  0.2505704438286964  0.5329830773988926  1.0000
  H   H623      1.0  0.8568618392668329  0.2873405536562753  0.5456974625629921  1.0000
  H   H624      1.0  0.8192808509649206  0.24899834809378846  0.513518255374814  1.0000
  C   C827      1.0  0.927606512758902  0.3603377233737511  0.5415333837241381  1.0000
  C   C828      1.0  0.9245797090930747  0.34123120702748777  0.5628709313775022  1.0000
  C   C829      1.0  0.9266323812175818  0.3607343294365047  0.5838008783294619  1.0000
  C   C830      1.0  0.9266039916457809  0.3946123505965929  0.5839653864737704  1.0000
  C   C831      1.0  0.9257721760493113  0.41101492135690815  0.5630649758045213  1.0000
  C   C832      1.0  0.9286030300857999  0.3948798926718198  0.5416239616577836  1.0000
  C   C833      1.0  0.9263873036128167  0.3022433973579594  0.5618060141299593  1.0000
  C   C834      1.0  0.9710255697456167  0.32007749553531295  0.559761745350847  1.0000
  C   C835      1.0  0.9933109449257661  0.3281925520322166  0.5795623322566227  1.0000
  C   C836      1.0  0.03233276692336283  0.3464047704595243  0.5780948265253475  1.0000
  C   C837      1.0  0.0502174235868149  0.35726295111649015  0.5561004993491669  1.0000
  C   C838      1.0  0.029118764064998134  0.3497940365779254  0.5355482588003533  1.0000
  C   C839      1.0  0.9902893367410018  0.3313356550681289  0.5379367595288731  1.0000
  C   C840      1.0  0.8800563136849842  0.27029429856330567  0.598771835492641  1.0000
  C   C841      1.0  0.8675329988258959  0.2460385709777234  0.6179455371738589  1.0000
  C   C842      1.0  0.8805519740264903  0.2209134118342086  0.6212731126847977  1.0000
  C   C843      1.0  0.9060351933637691  0.21999991101601965  0.6047508741521099  1.0000
  C   C844      1.0  0.9193191542761093  0.24521084937120968  0.5860864495879301  1.0000
  C   C845      1.0  0.9084169863828712  0.2727144673632207  0.5833972157990854  1.0000
  C   C846      1.0  0.8720952393884069  0.19786698251187534  0.6459317915692364  1.0000
  C   C847      1.0  0.9712585508170877  0.2917870633440094  0.6821189291150058  1.0000
  C   C848      1.0  0.9356112465755076  0.28802230606002466  0.6847038013716067  1.0000
  C   C849      1.0  0.9046057990880791  0.25786663639866425  0.6745046544400212  1.0000
  C   C850      1.0  0.9075877867859888  0.23095719689351019  0.6604034960507217  1.0000
  C   C851      1.0  0.9436257804675494  0.2353750656131838  0.657076457563105  1.0000
  C   C852      1.0  0.9745861305593668  0.2648304313322993  0.6683242320347992  1.0000
  C   C853      1.0  0.8723410909718882  0.15786838975156695  0.6443303880230071  1.0000
  C   C854      1.0  0.8527729474709953  0.131434829022907  0.6263571124742522  1.0000
  C   C855      1.0  0.845531599580436  0.09465516745534759  0.6279107209448228  1.0000
  C   C856      1.0  0.8586126910121856  0.08339366797493296  0.6467776033013998  1.0000
  C   C857      1.0  0.8804235302020406  0.1098025435634297  0.6634407209522278  1.0000
  C   C858      1.0  0.8871957813515662  0.14649233512773027  0.6625521263620778  1.0000
  C   C859      1.0  0.8247371840362674  0.1732396519084185  0.6823015170444887  1.0000
  C   C860      1.0  0.790662961654308  0.16338730759675651  0.6930401934069188  1.0000
  C   C861      1.0  0.7626344057661185  0.16357215461792607  0.6806922371562032  1.0000
  C   C862      1.0  0.7664657523258932  0.16844239402004793  0.6560679277643728  1.0000
  C   C863      1.0  0.7995430023622273  0.1749886037562686  0.644955841185373  1.0000
  C   C864      1.0  0.8306771113716148  0.18198118940605826  0.6582022374538087  1.0000
  H   H625      1.0  0.9270447212454327  0.3470999597366299  0.5248373286428936  1.0000
  H   H626      1.0  0.9273668233500497  0.3486945585780766  0.6009539402577355  1.0000
  H   H627      1.0  0.9243090414098155  0.40714296205319506  0.6007335816879382  1.0000
  H   H628      1.0  0.9292564111224794  0.4074002887623596  0.5246821289028331  1.0000
  H   H629      1.0  0.9796956487643675  0.3218028172245171  0.5971754441640837  1.0000
  H   H630      1.0  0.04903945983776731  0.3531254153848917  0.5941634593587121  1.0000
  H   H631      1.0  0.04388907150791425  0.3590570687713083  0.5181197039078891  1.0000
  H   H632      1.0  0.9747128462353956  0.3252703107307838  0.5214714454683183  1.0000
  H   H633      1.0  0.8674384064594736  0.28819632433260467  0.596045726102352  1.0000
  H   H634      1.0  0.8481467570448019  0.24912265041707868  0.63087956487666  1.0000
  H   H635      1.0  0.917509372133223  0.2013572251170638  0.6068092845453685  1.0000
  H   H636      1.0  0.9399189832751587  0.24454731920660774  0.5737572891534847  1.0000
  H   H637      1.0  0.9311519329593818  0.30774370260442163  0.6960654247875668  1.0000
  H   H638      1.0  0.877381350070285  0.25635677992698735  0.6765954652403743  1.0000
  H   H639      1.0  0.9483555365454535  0.21674262692057342  0.6451763787629444  1.0000
  H   H640      1.0  0.0026587112262857486  0.2688525032305453  0.6644002026208831  1.0000
  H   H641      1.0  0.8402020053126527  0.13869279393963416  0.6117017460166401  1.0000
  H   H642      1.0  0.828356528245608  0.07470336898817444  0.6140564142758731  1.0000
  H   H643      1.0  0.8904785279968584  0.10096233234121102  0.6785661618243713  1.0000
  H   H644      1.0  0.9001037506448354  0.16485624635309512  0.6781326049957367  1.0000
  H   H645      1.0  0.8460167183634006  0.17497214325033614  0.6934161097323248  1.0000
  H   H646      1.0  0.78804339940204  0.15957586382869818  0.7118646509210572  1.0000
  H   H647      1.0  0.7445688793023797  0.1686187163596325  0.6457459814998214  1.0000
  H   H648      1.0  0.8022734085917069  0.17608623898286968  0.6255469232891153  1.0000
  C   C865      1.0  0.45245262806556874  0.2296515279980357  0.8312306147816286  1.0000
  C   C866      1.0  0.4780914001918096  0.21713541338920325  0.8285795096486467  1.0000
  C   C867      1.0  0.4804689742277427  0.19457143251589712  0.8450893966449281  1.0000
  C   C868      1.0  0.4584000506051127  0.18418417079115063  0.8662302147546632  1.0000
  C   C869      1.0  0.4321957698851944  0.1962446038647632  0.8684338004526382  1.0000
  C   C870      1.0  0.42947570906208243  0.2193552406974482  0.8514942947987497  1.0000
  H   H649      1.0  0.4958960510485738  0.22492249632429745  0.8126871994726749  1.0000
  H   H650      1.0  0.4995322964396053  0.18321714328458366  0.8409578972209426  1.0000
  H   H651      1.0  0.413076282743453  0.18799452092569757  0.884011056946365  1.0000
  H   H652      1.0  0.4071293147489183  0.22701786479925712  0.8539377509138886  1.0000
  C   C871      1.0  0.532156879548313  0.1903808225249222  0.88748022760654  1.0000
  C   C872      1.0  0.4989727737119954  0.15583497067348162  0.8865332764820649  1.0000
  C   C873      1.0  0.5008750572304191  0.1224521605100996  0.8902279969374832  1.0000
  C   C874      1.0  0.5356696241554452  0.12537717437550502  0.895383420828765  1.0000
  C   C875      1.0  0.5683414695317572  0.160073053741903  0.894178698509726  1.0000
  C   C876      1.0  0.5665586071937402  0.19226481409478416  0.8909261272560947  1.0000
  C   C877      1.0  0.4589286894744866  0.15450776877929653  0.8846572750105153  1.0000
  C   C878      1.0  0.42451714739029667  0.11652413467758979  0.8731739263082333  1.0000
  C   C879      1.0  0.387224640932851  0.10225140273929488  0.8803592983567072  1.0000
  C   C880      1.0  0.3599971433205468  0.06511622205413392  0.8757516382538741  1.0000
  C   C881      1.0  0.3706463836243689  0.04206687059288219  0.8634484339466592  1.0000
  C   C882      1.0  0.4058706171626653  0.05798326858590798  0.8526560552520281  1.0000
  C   C883      1.0  0.4320887002293337  0.09552446283262417  0.8566926805557921  1.0000
  C   C884      1.0  0.4382425237328176  0.1271795444465613  0.9271232892372081  1.0000
  C   C885      1.0  0.43150893108989197  0.13003941267601438  0.9507916971158632  1.0000
  C   C886      1.0  0.43341210371307815  0.16248289035705762  0.9604026245020754  1.0000
  C   C887      1.0  0.44643331151514476  0.1937264708587259  0.9455252884046996  1.0000
  C   C888      1.0  0.45544703016024796  0.1919618219338179  0.9221450830421893  1.0000
  C   C889      1.0  0.4503049104505014  0.15810266685368052  0.9121206476980303  1.0000
  C   C890      1.0  0.42329179361561636  0.16328827889183223  0.9878409361012304  1.0000
  C   C891      1.0  0.3383991254856048  0.04844677037523663  0.5147649908184115  1.0000
  C   C892      1.0  0.367505918712663  0.0744052246407404  0.529032017811102  1.0000
  C   C893      1.0  0.39095142582752823  0.11147638398672718  0.5218731389131807  1.0000
  C   C894      1.0  0.3895093099963133  0.12406800251783326  0.9993565062028325  1.0000
  C   C895      1.0  0.3578670897686648  0.0989088890809015  0.9861063507711427  1.0000
  C   C896      1.0  0.33286350863245234  0.061302449669765516  0.9932702418867361  1.0000
  C   C897      1.0  0.40664310344757154  0.19045241471961485  0.9946324910468978  1.0000
  C   C898      1.0  0.41453931077730644  0.20944017829686853  0.5163347278894198  1.0000
  C   C899      1.0  0.4066828010119849  0.23858833091564058  0.5206958047835639  1.0000
  C   C900      1.0  0.3872125973545591  0.24650402078901046  0.5038961433515446  1.0000
  C   C901      1.0  0.3751763054599168  0.22445743385530822  0.9834624059491208  1.0000
  C   C902      1.0  0.3836471960415044  0.1956311666989146  0.9796119487303199  1.0000
  C   C903      1.0  0.4911620242689166  0.21932376088049627  0.9957906713446961  1.0000
  C   C904      1.0  0.5243621023040591  0.235704665904574  0.5075837034960031  1.0000
  C   C905      1.0  0.5337234100148701  0.21454327024003636  0.5221813903000134  1.0000
  C   C906      1.0  0.511211436187312  0.17523784592359384  0.5216715761596534  1.0000
  C   C907      1.0  0.47772308477497816  0.1578591809973972  0.5087318739104165  1.0000
  C   C908      1.0  0.4650683576600157  0.18049515515707926  0.9980067875868514  1.0000
  H   H653      1.0  0.5320767626179931  0.21650794991230674  0.886032054714857  1.0000
  H   H654      1.0  0.4752020853638148  0.09485655310645406  0.890958348655415  1.0000
  H   H655      1.0  0.5356568684002418  0.09880476103058397  0.8956501424120293  1.0000
  H   H656      1.0  0.5929207942430533  0.21918014496848567  0.8903801535453859  1.0000
  H   H657      1.0  0.3785307248915341  0.11872381202963989  0.8910926044859172  1.0000
  H   H658      1.0  0.33078941620624647  0.053523636086995625  0.8828546667263066  1.0000
  H   H659      1.0  0.41414873235175764  0.04004781332975937  0.8421536691512818  1.0000
  H   H660      1.0  0.4599420544593376  0.10727577670229176  0.8487250445349257  1.0000
  H   H661      1.0  0.4354260090156267  0.10078152478687116  0.9202225395493987  1.0000
  H   H662      1.0  0.42221467694198833  0.10488035171414038  0.9620656067225616  1.0000
  H   H663      1.0  0.45122027374255097  0.2204834728438336  0.9530686760011792  1.0000
  H   H664      1.0  0.4686448247840463  0.21793582174047438  0.911841395570586  1.0000
  H   H665      1.0  0.37222699046768626  0.06504324298503103  0.5462445103203447  1.0000
  H   H666      1.0  0.41171487386727024  0.12978802821552243  0.5341770592514915  1.0000
  H   H667      1.0  0.35190364671140184  0.10714774733572857  0.9695445515204001  1.0000
  H   H668      1.0  0.30928604398461196  0.04159696741502031  0.9816275762655918  1.0000
  H   H669      1.0  0.4318984681963863  0.20758328688516192  0.5296768038130603  1.0000
  H   H670      1.0  0.4159959281301465  0.25577145284334635  0.5369500686785695  1.0000
  H   H671      1.0  0.3603679129405758  0.22926050670570594  0.9695427614426603  1.0000
  H   H672      1.0  0.3740225513039881  0.17957892247999432  0.963153973988499  1.0000
  H   H673      1.0  0.48473614835059614  0.23872056671795175  0.9866218931602708  1.0000
  H   H674      1.0  0.5423910661230484  0.2663962876373218  0.5065973706612474  1.0000
  H   H675      1.0  0.5185471073241035  0.15633165286009784  0.530928426168888  1.0000
  H   H676      1.0  0.4612226710946941  0.1272246805381053  0.5074718023876558  1.0000
  C   C909      1.0  0.830050429825941  0.1999234877397087  0.9375451218396532  1.0000
  C   C910      1.0  0.8151251535926503  0.16095664906967797  0.9352090703889161  1.0000
  C   C911      1.0  0.7930437436357227  0.14237731296967787  0.9158672804079098  1.0000
  C   C912      1.0  0.7838125254323286  0.16122637473444315  0.8987040150365179  1.0000
  C   C913      1.0  0.7995825538593146  0.20048071541948378  0.9018778228695881  1.0000
  C   C914      1.0  0.8211348150749886  0.21883742910361248  0.9212840556492355  1.0000
  H   H677      1.0  0.8213754491293416  0.14434935189307468  0.9476680114595135  1.0000
  H   H678      1.0  0.7865235085078023  0.1132145235745072  0.9143833059614263  1.0000
  H   H679      1.0  0.7974558886375172  0.21759043725787608  0.8885041520738363  1.0000
  H   H680      1.0  0.8351001129274361  0.2498579551155905  0.9228414232830603  1.0000
  C   C915      1.0  0.7181276156871954  0.1731228202322769  0.8798849277555996  1.0000
  C   C916      1.0  0.7184738553969319  0.13855936678058886  0.877649120658304  1.0000
  C   C917      1.0  0.6840823088009734  0.1054580188390765  0.8727102961735658  1.0000
  C   C918      1.0  0.6507005076663283  0.10617288472629557  0.8721607423073772  1.0000
  C   C919      1.0  0.6511794583448064  0.14066109690783954  0.8755081876812303  1.0000
  C   C920      1.0  0.6847452433993299  0.17361358202732505  0.8796915993596766  1.0000
  C   C921      1.0  0.7581912448293303  0.13872042668926948  0.875245046253446  1.0000
  C   C922      1.0  0.7554774142279699  0.0975924208778953  0.8725742502653239  1.0000
  C   C923      1.0  0.7806474805351812  0.09162398311286918  0.8577756775885091  1.0000
  C   C924      1.0  0.779732152204949  0.05725159935532427  0.8573424787754221  1.0000
  C   C925      1.0  0.7545091478439512  0.027457549476417414  0.871396379112385  1.0000
  C   C926      1.0  0.7327904802933216  0.03326774039620136  0.8876377544476625  1.0000
  C   C927      1.0  0.7317443126023714  0.06709852947640896  0.8874515863626993  1.0000
  C   C928      1.0  0.7544408999369332  0.14995997217210977  0.8299417588088082  1.0000
  C   C929      1.0  0.7701079533123022  0.1663500287106175  0.8083981732075667  1.0000
  C   C930      1.0  0.8077566466074447  0.1955670641200992  0.8061802668876716  1.0000
  C   C931      1.0  0.8293213466169955  0.20432137690471225  0.8261485840776881  1.0000
  C   C932      1.0  0.8138553622424435  0.18725933995333516  0.8474594595727256  1.0000
  C   C933      1.0  0.7757351186413033  0.1604258595876444  0.8503092633348509  1.0000
  C   C934      1.0  0.8266157961802805  0.20983282172392392  0.7802545709788409  1.0000
  C   C935      1.0  0.8221952246689392  0.10330039555676715  0.7569173274820911  1.0000
  C   C936      1.0  0.7971147977387469  0.11269386877809007  0.7484878514042975  1.0000
  C   C937      1.0  0.7991063486192589  0.14632138035134667  0.755653532597631  1.0000
  C   C938      1.0  0.8265786621598664  0.17234338266747848  0.7710410408509147  1.0000
  C   C939      1.0  0.8501740575138883  0.16028543668718342  0.7806716590922674  1.0000
  C   C940      1.0  0.8490344737232178  0.1271133986075906  0.7728633399902637  1.0000
  C   C941      1.0  0.8680010575918294  0.24753732409739115  0.7822684084363727  1.0000
  C   C942      1.0  0.8732818428815187  0.2788244229190601  0.7958533084054479  1.0000
  C   C943      1.0  0.9094168348878922  0.3081664828518587  0.800707999236405  1.0000
  C   C944      1.0  0.9408292625454734  0.30847170417519254  0.7904687545634427  1.0000
  C   C945      1.0  0.9357830098751285  0.28031827258669423  0.7746802688963925  1.0000
  C   C946      1.0  0.8996113267458661  0.24980783753829824  0.770983758363234  1.0000
  C   C947      1.0  0.8229756906169537  0.2373615166163132  0.739496290916135  1.0000
  C   C948      1.0  0.80226743948283  0.23821960325219063  0.7212482384342858  1.0000
  C   C949      1.0  0.7634657815745328  0.2213330848739805  0.7239315649665884  1.0000
  C   C950      1.0  0.7481682781970369  0.2136601811104241  0.7468714112050517  1.0000
  C   C951      1.0  0.7703479397524151  0.21706798856303897  0.7656421663869893  1.0000
  C   C952      1.0  0.8074789689109407  0.2244308623822902  0.7620906521507731  1.0000
  H   H681      1.0  0.7442152085195124  0.200677948324102  0.8819077156018316  1.0000
  H   H682      1.0  0.6826423274256326  0.07874720213273208  0.8676354257805855  1.0000
  H   H683      1.0  0.6250236887962572  0.08028467557112304  0.8684051592087977  1.0000
  H   H684      1.0  0.6860771096824793  0.20088661021580115  0.8814064938346237  1.0000
  H   H685      1.0  0.8022126846623595  0.11387703232075749  0.8461938746105256  1.0000
  H   H686      1.0  0.8003092967440301  0.055135661299393186  0.8454259312600536  1.0000
  H   H687      1.0  0.7137355716806458  0.012414511118318703  0.9003204552357633  1.0000
  H   H688      1.0  0.7130804332439268  0.06961182554952217  0.9001861994052612  1.0000
  H   H689      1.0  0.7258956115577158  0.12618643598070386  0.829927438186888  1.0000
  H   H690      1.0  0.7523898381273741  0.1549718600734451  0.7928585083463805  1.0000
  H   H691      1.0  0.860074458606903  0.22382706043029021  0.8255560683457386  1.0000
  H   H692      1.0  0.8346407741773212  0.19263972955785297  0.8609530655770595  1.0000
  H   H693      1.0  0.775549678392162  0.09378719844342098  0.7365605634224883  1.0000
  H   H694      1.0  0.7761552371572152  0.15034431415239863  0.7500971312925828  1.0000
  H   H695      1.0  0.8712441592982721  0.17721682950606427  0.7939755168561583  1.0000
  H   H696      1.0  0.8699909105064821  0.1207033774074643  0.7804496894525039  1.0000
  H   H697      1.0  0.850252533756679  0.27858595248773566  0.8056450336434032  1.0000
  H   H698      1.0  0.9125534298879109  0.3311349828897495  0.8125028214654519  1.0000
  H   H699      1.0  0.9594033289182927  0.2814401924775874  0.7652966813831639  1.0000
  H   H700      1.0  0.8977574879152779  0.22762992090107062  0.759179985745487  1.0000
  H   H701      1.0  0.8515821308520779  0.2435337805570897  0.7351857837181467  1.0000
  H   H702      1.0  0.8148546675238627  0.24314545723300887  0.7030968501503982  1.0000
  H   H703      1.0  0.7178804938237059  0.2020298368017791  0.7507164981906329  1.0000
  H   H704      1.0  0.7560885649418958  0.21044421595978965  0.7827606798148804  1.0000
  C   C953      1.0  0.2999069052925372  0.8428700287289441  0.6855182867433197  1.0000
  C   C954      1.0  0.2995046520100514  0.8753069849092819  0.679790037975229  1.0000
  C   C955      1.0  0.32244429891769655  0.8985670971663045  0.661235345176513  1.0000
  C   C956      1.0  0.3445059330528116  0.8880392711598523  0.6470974901935427  1.0000
  C   C957      1.0  0.3439481378702376  0.8548406122716664  0.6531842915329613  1.0000
  C   C958      1.0  0.324200266392354  0.8341188343681203  0.6731454484120175  1.0000
  H   H705      1.0  0.2806059102187471  0.883469684597552  0.6879026702930375  1.0000
  H   H706      1.0  0.3167765887155758  0.9214330805159436  0.6561780175453849  1.0000
  H   H707      1.0  0.36002253602875184  0.8446640572432583  0.6430757225350212  1.0000
  H   H708      1.0  0.3251082153499631  0.808534284685449  0.6771255072591966  1.0000
  C   C959      1.0  0.4295817730672951  0.9174709180298729  0.6405717617922694  1.0000
  C   C960      1.0  0.4097892385888178  0.9218673130535259  0.6219003559249036  1.0000
  C   C961      1.0  0.4314479088812155  0.9396818245148613  0.6015013460306362  1.0000
  C   C962      1.0  0.46907544388535355  0.9492966937864104  0.599143634639245  1.0000
  C   C963      1.0  0.4861371364534431  0.9406149189619568  0.6171144040791637  1.0000
  C   C964      1.0  0.4661774278569528  0.925062939938466  0.6379582482918281  1.0000
  C   C965      1.0  0.3656134295935279  0.9100828951643692  0.6227583401856992  1.0000
  C   C966      1.0  0.3676600219126062  0.95077653794819  0.6197391950693674  1.0000
  C   C967      1.0  0.3551488559466821  0.9612756391026067  0.5997340022779063  1.0000
  C   C968      1.0  0.35508728209815843  0.9954267439294969  0.5990944075013943  1.0000
  C   C969      1.0  0.3703386500514406  0.020967883031752066  0.6176272613516819  1.0000
  C   C970      1.0  0.3863550289203227  0.012983009902032716  0.6359510341219342  1.0000
  C   C971      1.0  0.384649930720083  0.9783119440248113  0.6373512329301844  1.0000
  C   C972      1.0  0.3531429019619644  0.8690949227807118  0.5834176226853217  1.0000
  C   C973      1.0  0.33119629857945215  0.8529011195545902  0.5633096794315832  1.0000
  C   C974      1.0  0.29428605772436717  0.8442986726936734  0.5627819645138228  1.0000
  C   C975      1.0  0.28009825550346407  0.854320474476837  0.5826860179129721  1.0000
  C   C976      1.0  0.3022781421550513  0.8723979285337403  0.6019895002303421  1.0000
  C   C977      1.0  0.34002878862158825  0.8822190805894998  0.602297751617175  1.0000
  C   C978      1.0  0.2667855066281102  0.823086786835037  0.5411800223782566  1.0000
  C   C979      1.0  0.2989820775506971  0.9354214292435871  0.5113695176587936  1.0000
  C   C980      1.0  0.31558206805794586  0.9152026839761556  0.5028632684955483  1.0000
  C   C981      1.0  0.3029904331209197  0.8779260946841347  0.5099775532081475  1.0000
  C   C982      1.0  0.2737982216614573  0.8599557846839084  0.5267061698034832  1.0000
  C   C983      1.0  0.2550925890479299  0.8794050274161376  0.5334470655491079  1.0000
  C   C984      1.0  0.26744886112837873  0.9167381925316044  0.5266816457384448  1.0000
  C   C985      1.0  0.225320209401777  0.7942066052963002  0.5510988431357536  1.0000
  C   C986      1.0  0.21886917637185244  0.7711061959405457  0.5707599829855813  1.0000
  C   C987      1.0  0.18286469256614457  0.7477514532311204  0.5795129261109979  1.0000
  C   C988      1.0  0.1521359851511778  0.744117527361231  0.5673310890745569  1.0000
  C   C989      1.0  0.15801175176247076  0.7646702192169199  0.547072600282882  1.0000
  C   C990      1.0  0.1939262267186638  0.7900271617520038  0.5394051602990184  1.0000
  C   C991      1.0  0.2550271515554246  0.7840488715124978  0.503035115958591  1.0000
  C   C992      1.0  0.26016971151672563  0.7602614920709448  0.9871607065600192  1.0000
  C   C993      1.0  0.28738147284182397  0.750990010028736  0.9924342755821428  1.0000
  C   C994      1.0  0.3002639542460849  0.7551498584724818  0.515287747220832  1.0000
  C   C995      1.0  0.29201239725218786  0.7756837816482276  0.5313770196505392  1.0000
  C   C996      1.0  0.2728622408370728  0.7939966341216521  0.5248976542627325  1.0000
  H   H709      1.0  0.41763207978196665  0.9078130964132795  0.658665330565154  1.0000
  H   H710      1.0  0.41933937893504675  0.9457824969825629  0.5865993068604483  1.0000
  H   H711      1.0  0.4840449071361061  0.961429285770006  0.5824030066222738  1.0000
  H   H712      1.0  0.4789933592746063  0.9164467059719319  0.6511410968004929  1.0000
  H   H713      1.0  0.3433841359455634  0.94223731618539  0.5842032878054203  1.0000
  H   H714      1.0  0.3412556085034102  0.9999756179531564  0.5846400667739872  1.0000
  H   H715      1.0  0.3982541839486443  0.03291113801182583  0.6507229346404222  1.0000
  H   H716      1.0  0.39661422303255073  0.9726593980543972  0.6526603357784551  1.0000
  H   H717      1.0  0.381356136318541  0.873193553875823  0.5834756212040988  1.0000
  H   H718      1.0  0.3447662423647984  0.8467054549783478  0.5478908448178488  1.0000
  H   H719      1.0  0.2511673517929355  0.8475254491802141  0.5832536515643353  1.0000
  H   H720      1.0  0.28949734953903944  0.8823320843020103  0.6148930966115626  1.0000
  H   H721      1.0  0.3394416503280251  0.9291628231999378  0.9901930982516276  1.0000
  H   H722      1.0  0.31881078865727486  0.864200484336999  0.5031765321000533  1.0000
  H   H723      1.0  0.2313519806074362  0.8664914289841733  0.5455784223932802  1.0000
  H   H724      1.0  0.2520653065546032  0.9300189843744019  0.5329927438186888  1.0000
  H   H725      1.0  0.2417489719928041  0.7719588805845844  0.5813094481308904  1.0000
  H   H726      1.0  0.18037280038961498  0.7310157980437879  0.5952994426925341  1.0000
  H   H727      1.0  0.135324369007504  0.760225601131942  0.5364085701622109  1.0000
  H   H728      1.0  0.19765528268072602  0.8062480058348922  0.5237253323507879  1.0000
  H   H729      1.0  0.23684099623710228  0.7947750281499427  0.9973462489007808  1.0000
  H   H730      1.0  0.24886048038079725  0.7558942682542825  0.9693744941350975  1.0000
  H   H731      1.0  0.3197409542495007  0.7463531586725706  0.5204641687240043  1.0000
  H   H732      1.0  0.30545729487707096  0.7801217504506781  0.5484763792466121  1.0000
  C   C997      1.0  0.228434552188779  0.4121285511780771  0.8731381247534327  1.0000
  C   C998      1.0  0.19517989980258935  0.3825589948129944  0.8647856220184603  1.0000
  C   C999      1.0  0.17543106845203668  0.3878017990370648  0.8471086043356802  1.0000
  C   C1000     1.0  0.18895440486658407  0.4232978315639345  0.837060897980901  1.0000
  C   C1001     1.0  0.22395646548013073  0.45246042625333943  0.8451144577332886  1.0000
  C   C1002     1.0  0.2430267086574563  0.44733702021694033  0.8629883839674718  1.0000
  H   H733      1.0  0.18288769857658418  0.3542877521292541  0.8724740059118821  1.0000
  H   H734      1.0  0.14777299853444498  0.36428057303873707  0.8427730360493315  1.0000
  H   H735      1.0  0.23593003076180705  0.48054644412793496  0.8372381156771639  1.0000
  H   H736      1.0  0.26983428064169007  0.4709349199380445  0.8678448648761689  1.0000
  C   C1003     1.0  0.16695237779521  0.4864406432251594  0.8395383655731004  1.0000
  C   C1004     1.0  0.16484772102010842  0.4685223658409693  0.8180216311379593  1.0000
  C   C1005     1.0  0.1566352489276419  0.4831162852415341  0.7979763406051216  1.0000
  C   C1006     1.0  0.15601919711879425  0.5167656940367297  0.7990987193481195  1.0000
  C   C1007     1.0  0.1622074383276916  0.5362055268522539  0.8203004001010153  1.0000
  C   C1008     1.0  0.16587052659158147  0.5200296835139465  0.8409382063658024  1.0000
  C   C1009     1.0  0.1665317802711817  0.4301023019168637  0.8163962405500135  1.0000
  C   C1010     1.0  0.12168025858409405  0.40082404023897544  0.8150626326336925  1.0000
  C   C1011     1.0  0.1032448581481025  0.38689489658680515  0.7932451651382267  1.0000
  C   C1012     1.0  0.06557497577046309  0.36216216082585356  0.7931395505515652  1.0000
  C   C1013     1.0  0.043356797570164286  0.35299046645963333  0.8137952575937522  1.0000
  C   C1014     1.0  0.06098637247376145  0.3693452639619916  0.8348465718164859  1.0000
  C   C1015     1.0  0.09933955416558365  0.39047658250450584  0.8359331490046831  1.0000
  C   C1016     1.0  0.21148934752077272  0.45736185243379185  0.7784233214507918  1.0000
  C   C1017     1.0  0.21424763172716943  0.452664135035259  0.7543073941371297  1.0000
  C   C1018     1.0  0.1994647372085631  0.41619919320381826  0.7444386955563533  1.0000
  C   C1019     1.0  0.18507498253435317  0.3863014634131118  0.760570876149489  1.0000
  C   C1020     1.0  0.18118975800366335  0.3911247741246152  0.7846348912086901  1.0000
  C   C1021     1.0  0.1887167420474949  0.4267618174239386  0.7930518367423036  1.0000
  C   C1022     1.0  0.19744699769552707  0.40863179497837837  0.715763440238839  1.0000
  C   C1023     1.0  0.07190317058040235  0.3441499291096874  0.7108353562205408  1.0000
  C   C1024     1.0  0.0911052512323494  0.38379398776629087  0.7118986623981177  1.0000
  C   C1025     1.0  0.13043807124316162  0.4040954386968824  0.7131105450281169  1.0000
  C   C1026     1.0  0.1521604607469252  0.38648388549566876  0.7132716520247194  1.0000
  C   C1027     1.0  0.13165919271083287  0.34645357734252913  0.7131642473603177  1.0000
  C   C1028     1.0  0.09238954595204729  0.3257617749076883  0.7118897120094175  1.0000
  C   C1029     1.0  0.21738681779780042  0.38493188275676943  0.7074646398360674  1.0000
  C   C1030     1.0  0.2454770811664613  0.38583148537857365  0.7213896545757481  1.0000
  C   C1031     1.0  0.2627675102260958  0.3657494441282107  0.7155951729312763  1.0000
  C   C1032     1.0  0.25431643611692795  0.34494165031067964  0.6945886106520434  1.0000
  C   C1033     1.0  0.22807919020281606  0.34480578263247674  0.6793281979183016  1.0000
  C   C1034     1.0  0.2103965798263871  0.3653699872313704  0.6854932256549593  1.0000
  C   C1035     1.0  0.2067883804613013  0.4504786744660452  0.6784347701182535  1.0000
  C   C1036     1.0  0.2285445379122178  0.48066774484698077  0.663389524728863  1.0000
  C   C1037     1.0  0.2659114630244549  0.5068620821247467  0.6688435335871814  1.0000
  C   C1038     1.0  0.28044661962951917  0.5024658571644004  0.6896104044570246  1.0000
  C   C1039     1.0  0.25863051787316893  0.4726527264130103  0.7047097101941638  1.0000
  C   C1040     1.0  0.22149812210298186  0.44664083417729294  0.6997494047765451  1.0000
  H   H737      1.0  0.16960893013426578  0.47393320251338605  0.8560410922584217  1.0000
  H   H738      1.0  0.15027538385056038  0.468284914894769  0.7806627087035674  1.0000
  H   H739      1.0  0.15244359932933824  0.528508433971857  0.782347171856934  1.0000
  H   H740      1.0  0.1714630113430865  0.5351156562389655  0.8579081433412712  1.0000
  H   H741      1.0  0.11796470930279004  0.3943234533162635  0.7760747394558745  1.0000
  H   H742      1.0  0.052455269132262144  0.3500270124044242  0.7760729493781345  1.0000
  H   H743      1.0  0.04369911417512613  0.3619935933746704  0.8513725695124278  1.0000
  H   H744      1.0  0.11335916593144743  0.40241726626073443  0.8524484062341848  1.0000
  H   H745      1.0  0.22259217300697565  0.48621635849799233  0.7848425402265334  1.0000
  H   H746      1.0  0.22725105590599376  0.4772863887094798  0.7432661946366348  1.0000
  H   H747      1.0  0.17643487761037638  0.3586137543140833  0.7533049506027139  1.0000
  H   H748      1.0  0.1671057375897948  0.36609881089195667  0.7960108352465706  1.0000
  H   H749      1.0  0.07625361759480737  0.40025290010037334  0.7125663613951481  1.0000
  H   H750      1.0  0.14476845517802506  0.4352387432109999  0.7131964687596383  1.0000
  H   H751      1.0  0.14504140590533093  0.32935916755548034  0.7140539159971119  1.0000
  H   H752      1.0  0.07762310579634538  0.295198622337688  0.7104504895064346  1.0000
  H   H753      1.0  0.25417222805363116  0.4014113895432721  0.7381680532330339  1.0000
  H   H754      1.0  0.2837927142495898  0.36726444302574773  0.7273649340719628  1.0000
  H   H755      1.0  0.22012985475286198  0.3279895793498222  0.6627279119961486  1.0000
  H   H756      1.0  0.1894209533002472  0.3651617219037462  0.6737168412266346  1.0000
  H   H757      1.0  0.17794915711026038  0.43011264847862707  0.6732057740318566  1.0000
  H   H758      1.0  0.2180477668004753  0.4835343307608274  0.6465529485450262  1.0000
  H   H759      1.0  0.3105475207070033  0.5219820996763858  0.6940891789625755  1.0000
  H   H760      1.0  0.273440094365673  0.46840053381796204  0.7190231718034306  1.0000
  C   C1041     1.0  0.8454256594122438  0.61576005441063  0.6054289556000325  1.0000
  C   C1042     1.0  0.8759792834925934  0.6493878562317661  0.5983765863276429  1.0000
  C   C1043     1.0  0.901675438695664  0.649935552401594  0.581788114918574  1.0000
  C   C1044     1.0  0.8983934448062455  0.6162853001122081  0.5728606392135044  1.0000
  C   C1045     1.0  0.8637017961862772  0.5828120947848332  0.5775221806563124  1.0000
  C   C1046     1.0  0.837877488905539  0.5823298627042416  0.5937673151548437  1.0000
  H   H761      1.0  0.8817554042788165  0.6757200406049124  0.6071257702898055  1.0000
  H   H762      1.0  0.9263480258731615  0.6778074824239153  0.5772645884695223  1.0000
  H   H763      1.0  0.8580468380423569  0.5562541097100807  0.5688347543761807  1.0000
  H   H764      1.0  0.8117573231686619  0.5557012028962683  0.597944282553426  1.0000
  C   C1047     1.0  0.9265727141156735  0.5586097980952116  0.5830843102101285  1.0000
  C   C1048     1.0  0.938332995196621  0.5799994867155163  0.5619547695901557  1.0000
  C   C1049     1.0  0.9595876573321254  0.5713648704190522  0.5453310336496083  1.0000
  C   C1050     1.0  0.9647815861070237  0.5407886964650354  0.5484797803943182  1.0000
  C   C1051     1.0  0.9511040992444912  0.5185858339952628  0.5681985607473746  1.0000
  C   C1052     1.0  0.9310009861994837  0.5268879282953602  0.5857033729515638  1.0000
  C   C1053     1.0  0.9319868302341957  0.6162225485385876  0.5571589723168457  1.0000
  C   C1054     1.0  0.9738051102755294  0.6500490403141527  0.5629690276376558  1.0000
  C   C1055     1.0  0.0016183509771151897  0.6662402403792362  0.5454060379069154  1.0000
  C   C1056     1.0  0.03778184764871198  0.6936908024618986  0.5506679714237289  1.0000
  C   C1057     1.0  0.047238411000456906  0.7061389010545944  0.5737313330262543  1.0000
  C   C1058     1.0  0.02054090820434641  0.6904681768072857  0.5920712164961669  1.0000
  C   C1059     1.0  0.9842109017594183  0.661749071708503  0.5866159545834305  1.0000
  C   C1060     1.0  0.9047175922154682  0.5875390852020091  0.5153226358359851  1.0000
  C   C1061     1.0  0.8975707522977536  0.5910334720552475  0.9918471300834136  1.0000
  C   C1062     1.0  0.902983292554756  0.6249550465577793  0.983165253044276  1.0000
  C   C1063     1.0  0.9176074500475833  0.6565408200137184  0.9982108564492146  1.0000
  C   C1064     1.0  0.9266369400354527  0.6539604046554527  0.5216642368409192  1.0000
  C   C1065     1.0  0.92108707829271  0.6196678733777493  0.5305113380554615  1.0000
  C   C1066     1.0  0.899147301387433  0.630871116434374  0.9550789333032311  1.0000
  C   C1067     1.0  0.022533520703421527  0.7022945414858921  0.9357317730890045  1.0000
  C   C1068     1.0  0.006675581906406549  0.6638843754465249  0.9413651477368737  1.0000
  C   C1069     1.0  0.9688261303600912  0.6417133174195535  0.9474585723639304  1.0000
  C   C1070     1.0  0.9447187260919421  0.6571149109893429  0.9481423820606212  1.0000
  C   C1071     1.0  0.9614467515462879  0.6958250979255989  0.943604534989649  1.0000
  C   C1072     1.0  0.9996406691412765  0.7184014961631268  0.9379389389424593  1.0000
  C   C1073     1.0  0.8725131437131814  0.6494821581943196  0.9518800643818004  1.0000
  C   C1074     1.0  0.8447402932517558  0.6463889908172215  0.9684006918445222  1.0000
  C   C1075     1.0  0.8207190603268427  0.6599371934863285  0.963524520080685  1.0000
  C   C1076     1.0  0.8225858087027712  0.6752747497155935  0.9418430984934612  1.0000
  C   C1077     1.0  0.8502108404175581  0.6800617194875354  0.9256321544797644  1.0000
  C   C1078     1.0  0.8745263801334293  0.6670194644248186  0.9303740704130995  1.0000
  C   C1079     1.0  0.8927422396373959  0.5861575311652027  0.9198842148565335  1.0000
  C   C1080     1.0  0.8744586250852299  0.5516526055663578  0.9076221823373392  1.0000
  C   C1081     1.0  0.8386195658513466  0.5237312151725492  0.9138498627948978  1.0000
  C   C1082     1.0  0.8222009122763472  0.528803798126112  0.934643405823067  1.0000
  C   C1083     1.0  0.8412333954542268  0.5625875719262624  0.9476053587386126  1.0000
  C   C1084     1.0  0.8769978264540685  0.5916831987294435  0.9404110363014386  1.0000
  H   H765      1.0  0.9138986324361585  0.5669094267090246  0.5973653714123007  1.0000
  H   H766      1.0  0.9720524111571905  0.5885864797311184  0.5297140374300529  1.0000
  H   H767      1.0  0.9799229829766598  0.5335849821188444  0.5349151083037053  1.0000
  H   H768      1.0  0.9187282335802802  0.5087978904324559  0.6007167549571819  1.0000
  H   H769      1.0  0.9964384577799027  0.6580029235188654  0.5265962590302454  1.0000
  H   H770      1.0  0.059086055139687566  0.705601129987001  0.53673006812432  1.0000
  H   H771      1.0  0.026271151317636878  0.699880494890579  0.6105872436156984  1.0000
  H   H772      1.0  0.9653660912706661  0.6482000166644358  0.6020899235915577  1.0000
  H   H773      1.0  0.8966231343172005  0.5595552085886168  0.5213115915261337  1.0000
  H   H774      1.0  0.8881141366241105  0.5654751938409283  0.9810350605336424  1.0000
  H   H775      1.0  0.9250025466808971  0.6847887542461841  0.9919670652919954  1.0000
  H   H776      1.0  0.9399042374458134  0.680100003636973  0.5321345805501192  1.0000
  H   H777      1.0  0.024100551253027368  0.6505400488159263  0.9403465935027975  1.0000
  H   H778      1.0  0.9565370581818453  0.6109765965561361  0.9511944646073696  1.0000
  H   H779      1.0  0.9458912184688827  0.7105901133585935  0.944843268785749  1.0000
  H   H780      1.0  0.011561840711282528  0.7481488556280573  0.9332435650303651  1.0000
  H   H781      1.0  0.8419072444426675  0.6326069736285558  0.9855693274491341  1.0000
  H   H782      1.0  0.8000815518465932  0.6565533964541401  0.9772508361912225  1.0000
  H   H783      1.0  0.8504133403640108  0.6904980644322213  0.9077349572349607  1.0000
  H   H784      1.0  0.8948597565238853  0.6696768558673982  0.9168034910659446  1.0000
  H   H785      1.0  0.9192709845212643  0.6084777125627774  0.9120204033445888  1.0000
  H   H786      1.0  0.886093586769528  0.5485120878181404  0.8910389021537163  1.0000
  H   H787      1.0  0.7941290915609436  0.5063313193434885  0.939496306576284  1.0000
  H   H788      1.0  0.8264122864151434  0.5661863751376635  0.9626796033873913  1.0000
  C   C1085     1.0  0.4289337728834287  0.24363179230390042  0.7665318350237834  1.0000
  C   C1086     1.0  0.39598433304283376  0.2407223886518436  0.7583923515398744  1.0000
  C   C1087     1.0  0.3972081393348963  0.26074385972656383  0.7385296489365195  1.0000
  C   C1088     1.0  0.43151770941183265  0.28674689583247065  0.7277605412525091  1.0000
  C   C1089     1.0  0.46421151138717553  0.2895465115167319  0.7364907503906274  1.0000
  C   C1090     1.0  0.4635601848116898  0.2689382110046299  0.7557090250075719  1.0000
  H   H789      1.0  0.36813308893505986  0.22119592884051908  0.7659160482812136  1.0000
  H   H790      1.0  0.37158595302846015  0.258824529760884  0.7327888696242487  1.0000
  H   H791      1.0  0.4916836883859258  0.3097602725292337  0.7286197785677226  1.0000
  H   H792      1.0  0.490499377142327  0.27376444045987264  0.7627995229358243  1.0000
  C   C1091     1.0  0.4749476120044983  0.3738647566441014  0.7339380995333469  1.0000
  C   C1092     1.0  0.4679887006029685  0.3583337281051556  0.7106456079800979  1.0000
  C   C1093     1.0  0.4865314652151854  0.38366925771154625  0.6918551619430201  1.0000
  C   C1094     1.0  0.5136061615052612  0.42105597329240535  0.6959795010560456  1.0000
  C   C1095     1.0  0.522373075267419  0.43432275900091155  0.7195405042702988  1.0000
  C   C1096     1.0  0.5033370573239395  0.41027854008062303  0.7382110150987946  1.0000
  C   C1097     1.0  0.4370762948210519  0.3143877279570417  0.7059788753118438  1.0000
  C   C1098     1.0  0.40107973766798555  0.3189031399612227  0.6999319927060281  1.0000
  C   C1099     1.0  0.3921158530974893  0.3224721851774759  0.6766004774580463  1.0000
  C   C1100     1.0  0.36479104091189213  0.33151289245659277  0.6723576351986312  1.0000
  C   C1101     1.0  0.3465110035058577  0.33907590363773765  0.6907829053767431  1.0000
  C   C1102     1.0  0.3532097350156385  0.3334303548095169  0.7136439881946454  1.0000
  C   C1103     1.0  0.37987333989222405  0.32369840865426036  0.718419915605041  1.0000
  C   C1104     1.0  0.48135916694564856  0.3071616702310385  0.6725865861415807  1.0000
  C   C1105     1.0  0.4838536826712757  0.2934973495025304  0.6502967171305215  1.0000
  C   C1106     1.0  0.45205790091074133  0.2632424172646644  0.6398193921181355  1.0000
  C   C1107     1.0  0.418309894593534  0.24624375914847726  0.6532687832022908  1.0000
  C   C1108     1.0  0.41583764882354946  0.26041951922285234  0.6751027194129646  1.0000
  C   C1109     1.0  0.44628125619627845  0.2934176813244986  0.6841954192934387  1.0000
  C   C1110     1.0  0.45007555703860236  0.2502388787180156  0.6124763126547502  1.0000
  C   C1111     1.0  0.38410540428562595  0.301984733695681  0.5890379297656889  1.0000
  C   C1112     1.0  0.4209068281994008  0.324037345180103  0.5950164314018356  1.0000
  C   C1113     1.0  0.4426291809366717  0.30806350209246464  0.6009569833898937  1.0000
  C   C1114     1.0  0.42540356030924176  0.26835519662379725  0.6027674680161584  1.0000
  C   C1115     1.0  0.3865530113840575  0.24680677096456813  0.5985797601511361  1.0000
  C   C1116     1.0  0.3666251870692117  0.2633874655654421  0.5912314910283196  1.0000
  C   C1117     1.0  0.43100180504081204  0.20465113900192503  0.6098944835303074  1.0000
  C   C1118     1.0  0.43390918183725335  0.1840472412319039  0.6283220808094814  1.0000
  C   C1119     1.0  0.4219737672398262  0.14605095881816635  0.6257991452426854  1.0000
  C   C1120     1.0  0.4064297939551274  0.12733290934483868  0.6047050481619651  1.0000
  C   C1121     1.0  0.40193613513969306  0.1470351251213443  0.5861773855371235  1.0000
  C   C1122     1.0  0.4142992190934619  0.18518480525348338  0.5885896942995857  1.0000
  C   C1123     1.0  0.49057116870091755  0.2724902485640656  0.5732929429877214  1.0000
  C   C1124     1.0  0.5208865799347768  0.2775913506368596  0.5590158199565771  1.0000
  C   C1125     1.0  0.5474414969676823  0.2706216951497341  0.568091872114069  1.0000
  C   C1126     1.0  0.5470503316858325  0.2633449558366287  0.5922901430037725  1.0000
  C   C1127     1.0  0.5176080282055714  0.25933704514385875  0.6064079491160541  1.0000
  C   C1128     1.0  0.48786650277140564  0.26248311090391685  0.5974740291311204  1.0000
  H   H793      1.0  0.4603612683436354  0.35745795977704625  0.749651401935316  1.0000
  H   H794      1.0  0.481083829834194  0.37451966503788453  0.6735399815459199  1.0000
  H   H795      1.0  0.5297785899867024  0.4406502285919783  0.6818235662879011  1.0000
  H   H796      1.0  0.5106959752009214  0.41985664370435405  0.7563856743933026  1.0000
  H   H797      1.0  0.408761615587648  0.3211892897411759  0.661562929402938  1.0000
  H   H798      1.0  0.36047339171724146  0.3358853200309923  0.654172056429909  1.0000
  H   H799      1.0  0.34060257332964433  0.3406174449161895  0.72845509141564  1.0000
  H   H800      1.0  0.38579152688787516  0.3217900554889786  0.7368505560163731  1.0000
  H   H801      1.0  0.5052723657579654  0.33202594129252727  0.6794893049149041  1.0000
  H   H802      1.0  0.5108034919352705  0.30701474515184357  0.6407453993330522  1.0000
  H   H803      1.0  0.39372078790921067  0.2240709502528683  0.6452592593623078  1.0000
  H   H804      1.0  0.3880343861009583  0.24903116357147445  0.6833827239994659  1.0000
  H   H805      1.0  0.4353256684182175  0.35515055367081116  0.592578703535465  1.0000
  H   H806      1.0  0.4726230983007193  0.3254537574564474  0.6045892301321851  1.0000
  H   H807      1.0  0.37080124127431124  0.2161670237705072  0.60161465795158  1.0000
  H   H808      1.0  0.3367731484508439  0.245959134825987  0.5877517589094785  1.0000
  H   H809      1.0  0.4487208152176259  0.1974919586875137  0.6447852467767482  1.0000
  H   H810      1.0  0.4266340095536102  0.13167582578001938  0.6402473997057764  1.0000
  H   H811      1.0  0.38919673872166854  0.13204951464578404  0.5699854163474709  1.0000
  H   H812      1.0  0.41164303845018313  0.20055166656691562  0.5735947500946902  1.0000
  H   H813      1.0  0.4681762416977833  0.27374287992680585  0.5639720081953936  1.0000
  H   H814      1.0  0.5197487561345377  0.2844301068992031  0.5405370264540383  1.0000
  H   H815      1.0  0.5685959962516474  0.2591007554607668  0.6004854769131702  1.0000
  H   H816      1.0  0.5141366957114181  0.24907932545807226  0.624195414595394  1.0000
  C   C1129     1.0  0.2778730181784194  0.32538128041270387  0.6899916910156505  1.0000
  C   C1130     1.0  0.32044992784926873  0.35450076278614767  0.6858619816694052  1.0000
  H   H817      1.0  0.2669750425724263  0.30440255784065157  0.6753241520294062  1.0000
  H   H818      1.0  0.27533186933488263  0.30916228646596233  0.7064568260684315  1.0000
  H   H819      1.0  0.32864404275816  0.37972124447453715  0.6970087957565618  1.0000
  H   H820      1.0  0.3248686626491877  0.3662497153711057  0.6673792499958382  1.0000
  C   C1131     1.0  0.0866895467893965  0.7346467430924767  0.5795668074509728  1.0000
  C   C1132     1.0  0.11257812925123196  0.7166844780685064  0.5763502167599156  1.0000
  H   H821      1.0  0.09562416580495821  0.7600714547078504  0.5682327512322092  1.0000
  H   H822      1.0  0.0902344858280292  0.7457291025678409  0.5983060572646858  1.0000
  H   H823      1.0  0.11365645836358851  0.7044734199549487  0.5938684545471554  1.0000
  H   H824      1.0  0.10023267914669692  0.6917219751557159  0.5643189252614111  1.0000
  C   C1133     1.0  0.36944444487604805  0.057870172982182035  0.6187304862628612  1.0000
  C   C1134     1.0  0.4000111785957366  0.08720749481554177  0.6007129957939277  1.0000
  H   H825      1.0  0.34063214612235937  0.05346845103912075  0.614349987025238  1.0000
  H   H826      1.0  0.37490382916254844  0.0696560996080004  0.6372934134191814  1.0000
  H   H827      1.0  0.3911514756285835  0.07604282514410136  0.5824719246152649  1.0000
  H   H828      1.0  0.42813767041126566  0.0898335068457689  0.6029786971894817  1.0000
  C   C1135     1.0  0.9808647113731547  0.339670930848684  0.7960502169568511  1.0000
  C   C1136     1.0  0.0005903200036600689  0.3257550797966624  0.812714050638775  1.0000
  H   H829      1.0  0.9963557495417051  0.3493941683161192  0.7787956576207178  1.0000
  H   H830      1.0  0.9812287357578139  0.3651669088905056  0.8039713109564767  1.0000
  H   H831      1.0  0.9958137504221491  0.2978477829494283  0.8061534157215712  1.0000
  H   H832      1.0  0.9876727433644513  0.3196179954178337  0.8303749576218951  1.0000
  C   C1137     1.0  0.6059055265536559  0.16145795677631788  0.8952634856201832  1.0000
  C   C1138     1.0  0.6142039249105549  0.1416648502332634  0.8735355220117189  1.0000
  H   H833      1.0  0.6295720904674939  0.19096922725809995  0.8972522619893547  1.0000
  H   H834      1.0  0.6066859194038872  0.14791235342569478  0.9118073840935255  1.0000
  H   H835      1.0  0.6156925237683282  0.15742321052557762  0.8572082229449202  1.0000
  H   H836      1.0  0.5896371355584304  0.1122871598513252  0.8715503257980275  1.0000
  C   C1139     1.0  0.31518465161686515  0.006407999812660269  0.5221695757869292  1.0000
  C   C1140     1.0  0.31209502664173605  0.9764120143828521  0.5027648142198468  1.0000
  H   H837      1.0  0.3258806950157786  0.0022362128665487373  0.5394683500432415  1.0000
  H   H838      1.0  0.28697730221111095  0.0010356410100482711  0.5279116081536183  1.0000
  H   H839      1.0  0.3388504514228208  0.9879274600102897  0.9927475391866479  1.0000
  H   H840      1.0  0.2914125659459601  0.9734067721376204  0.989210345572352  1.0000
  C   C1141     1.0  0.578014232492927  0.27330584394099056  0.5505249442123006  1.0000
  C   C1142     1.0  0.5682828118180911  0.23405517726674838  0.53850009699366  1.0000
  H   H841      1.0  0.58498924131173  0.2953488643251488  0.5366312558330705  1.0000
  H   H842      1.0  0.6046562765220304  0.2836815265284843  0.5605101768539529  1.0000
  H   H843      1.0  0.5658034674321408  0.21466568188538343  0.5527895715612106  1.0000
  H   H844      1.0  0.5926975884937654  0.2375991423738387  0.5277984752404484  1.0000
  C   C1143     1.0  0.42912125060368633  0.22256088818147224  0.7883851040740497  1.0000
  C   C1144     1.0  0.444640649693806  0.24901697867149436  0.8102652242904165  1.0000
  H   H845      1.0  0.40115952513482656  0.19803258913482855  0.7925649355970159  1.0000
  H   H846      1.0  0.44706115591924417  0.20899803589680788  0.7845901392651895  1.0000
  H   H847      1.0  0.424373448962718  0.25827405499561584  0.8159666218924067  1.0000
  H   H848      1.0  0.4710758499267007  0.276424192936836  0.8067924734747614  1.0000
  C   C1145     1.0  0.9221294162985567  0.44657059177889286  0.5627565454099144  1.0000
  C   C1146     1.0  0.9565524323927961  0.4839049807195943  0.5715533454399618  1.0000
  H   H849      1.0  0.914366189869171  0.4499952989771091  0.5443626015922529  1.0000
  H   H850      1.0  0.8962508916017269  0.4406305124271962  0.5735141965963889  1.0000
  H   H851      1.0  0.9832245239362264  0.4891162001659704  0.5621813934320433  1.0000
  H   H852      1.0  0.9608505215785467  0.4796197844164151  0.5901660367574547  1.0000
  C   C1147     1.0  0.008213090549573136  0.32730826859029427  0.690707722111662  1.0000
  C   C1148     1.0  0.02824981265331814  0.3205058721021998  0.7115871888713527  1.0000
  H   H853      1.0  0.02863354637208792  0.3375862132274681  0.6748073565858599  1.0000
  H   H854      1.0  0.003914196361805161  0.35215891035748453  0.6953082219035347  1.0000
  H   H855      1.0  0.01850655983530057  0.3253678019955221  0.7289652635715481  1.0000
  H   H856      1.0  0.017262153346922278  0.2897255574176322  0.7116981736912346  1.0000
  C   C1149     1.0  0.7298833292880722  0.16280385803180092  0.6947049657051453  1.0000
  C   C1150     1.0  0.7370970614051001  0.20324270075181816  0.7026654414150514  1.0000
  H   H857      1.0  0.7047176890367698  0.14743408802175562  0.6829208839425386  1.0000
  H   H858      1.0  0.7228325505300992  0.1453514737382853  0.7109964632171434  1.0000
  H   H859      1.0  0.7095764273450594  0.20192089286875714  0.7068989752702184  1.0000
  H   H860      1.0  0.7485353942558143  0.2227347088164413  0.6874175592254897  1.0000
  C   C1151     1.0  0.8349140237341085  0.20430663981557692  0.9825387258352659  1.0000
  C   C1152     1.0  0.855250031687427  0.22180295199344255  0.9580629928958584  1.0000
  H   H861      1.0  0.8287390884440716  0.17493878913139743  0.9845113915047773  1.0000
  H   H862      1.0  0.806404955508085  0.2022040641729942  0.9843842959852356  1.0000
  H   H863      1.0  0.8622862695215611  0.252570963932897  0.9578947255882956  1.0000
  H   H864      1.0  0.8826687500341082  0.22217602872821046  0.9567222246685771  1.0000
  C   C1153     1.0  0.34331577997745594  0.3298651954003403  0.6014272368121992  1.0000
  C   C1154     1.0  0.3620054686759925  0.3198619279346726  0.5801777609836445  1.0000
  H   H865      1.0  0.3646810289038863  0.3465505516696492  0.6148637393366259  1.0000
  H   H866      1.0  0.32130375736239775  0.30373360050919773  0.6107834361360054  1.0000
  H   H867      1.0  0.3402466529209541  0.30084883916193994  0.5669639441300771  1.0000
  H   H868      1.0  0.3801650781947961  0.34582266692818114  0.5691535672216798  1.0000
  C   C1155     1.0  0.28599779445731555  0.5380211966068428  0.6248543422114985  1.0000
  C   C1156     1.0  0.29471997704888125  0.539894580810761  0.6523732073089544  1.0000
  H   H869      1.0  0.30587831845805974  0.5674342527645176  0.6178871806395341  1.0000
  H   H870      1.0  0.2570263789434947  0.5341555086459023  0.6230997080107227  1.0000
  H   H871      1.0  0.29752842141797875  0.5666499580047881  0.6607278581372148  1.0000
  H   H872      1.0  0.32443467044000457  0.545515178957302  0.6545334731256208  1.0000
  C   C1157     1.0  0.28853444673672196  0.416559553128795  0.8898126989017969  1.0000
  C   C1158     1.0  0.24740144820831778  0.40610321727747856  0.894359496361469  1.0000
  H   H873      1.0  0.30407521741255744  0.4432765282257677  0.8793479044335911  1.0000
  H   H874      1.0  0.28945839868365275  0.3942767247317505  0.8786891558252607  1.0000
  H   H875      1.0  0.23132794845045984  0.37623514726893575  0.9005030431652463  1.0000
  H   H876      1.0  0.24601631159157683  0.4230921101904645  0.9101461919507791  1.0000
  C   C1159     1.0  0.10573257769651055  0.34562757051976556  0.5510234808628984  1.0000
  C   C1160     1.0  0.09318841434914223  0.37575720963846176  0.5541629192033602  1.0000
  H   H877      1.0  0.09870245549817636  0.3341126842553296  0.5328993017606592  1.0000
  H   H878      1.0  0.09035746582437734  0.32153620637533686  0.5630297112730427  1.0000
  H   H879      1.0  0.10476750980823855  0.39725585757003423  0.5389762576725076  1.0000
  H   H880      1.0  0.1070933058013385  0.39342529988345976  0.5702471257130631  1.0000
  C   C1161     1.0  0.38132658155270965  0.28087637135900184  0.5047514033453573  1.0000
  C   C1162     1.0  0.4177548841897355  0.3188624439586698  0.9975986498621248  1.0000
  H   H881      1.0  0.356961108661177  0.2762029607612879  0.9933543755405175  1.0000
  H   H882      1.0  0.37291762498510417  0.28382859000915095  0.5235294978460289  1.0000
  H   H883      1.0  0.43836965003867495  0.3278646925701203  0.511931802326532  1.0000
  H   H884      1.0  0.4323797269547169  0.31502645665005036  0.9811102437987236  1.0000
  C   C1163     1.0  0.5200730553888238  0.5770783118912183  0.9750526207264675  1.0000
  C   C1164     1.0  0.5566415941086623  0.5753544841782291  0.9710392664333239  1.0000
  H   H885      1.0  0.5163777823061594  0.5901974638275533  0.9589813027764928  1.0000
  H   H886      1.0  0.5239741044140898  0.5964945523106738  0.9902485906615681  1.0000
  H   H887      1.0  0.556180562779615  0.5581779876362033  0.9554118877628763  1.0000
  H   H888      1.0  0.5612085523177192  0.5605962125073706  0.9859345033081001  1.0000
  C   C1165     1.0  0.7514559184516965  0.98815832683512  0.870320542390628  1.0000
  C   C1166     1.0  0.724270433106739  0.9638309649970174  0.8504614199427533  1.0000
  H   H889      1.0  0.7798791984369926  0.9918997566387632  0.8663286690303649  1.0000
  H   H890      1.0  0.7418460550043422  0.9741866555594519  0.8880297814727287  1.0000
  H   H891      1.0  0.736662367713718  0.9736850718834219  0.8325141005212289  1.0000
  H   H892      1.0  0.7001393014736599  0.9683925734321767  0.8509805424873615  1.0000
  C   C1167     1.0  0.8077589962210456  0.730420011123937  0.9450025857046115  1.0000
  C   C1168     1.0  0.7939641764221386  0.6877785077728011  0.9365355179942771  1.0000
  H   H893      1.0  0.8285791304584859  0.7498175703830671  0.9315483614105582  1.0000
  H   H894      1.0  0.8236527762794247  0.7379721141701607  0.9620011639239209  1.0000
  H   H895      1.0  0.7882298468207563  0.6855538727250059  0.9171597165362102  1.0000
  H   H896      1.0  0.7662675465395529  0.6674526386016308  0.9446678411672261  1.0000
  C   C1169     1.0  0.5553774530491188  0.970758269663818  0.6308759847211799  1.0000
  C   C1170     1.0  0.524913005888262  0.9441065585419801  0.6133709935092163  1.0000
  H   H897      1.0  0.5437410828260031  0.9702740370013396  0.6489917504580409  1.0000
  H   H898      1.0  0.5688073237669108  0.0004411403924176045  0.6248439597606062  1.0000
  H   H899      1.0  0.5198825955226292  0.9144078810515449  0.6142037376738777  1.0000
  H   H900      1.0  0.5352182418293953  0.9539528607837238  0.5946152749802952  1.0000
  C   C1171     1.0  0.7944961331539898  0.03212165531196133  0.7670867591231922  1.0000
  C   C1172     1.0  0.8158311076707968  0.0636184508061344  0.7485755652135588  1.0000
  H   H901      1.0  0.7741005532123892  0.03934826830542806  0.7764631863254609  1.0000
  H   H902      1.0  0.8142985478091904  0.034654259767026845  0.7815541674181015  1.0000
  H   H903      1.0  0.8016940275997451  0.05630674350631122  0.731038173594501  1.0000
  H   H904      1.0  0.8430202091902533  0.0641490200958341  0.7444315352453931  1.0000
  C   C1173     1.0  0.5325984435497124  0.8165051347673612  0.8019109314777039  1.0000
  C   C1174     1.0  0.523577242985291  0.7779298483714455  0.8132976159820244  1.0000
  H   H905      1.0  0.5378848080498845  0.8377869019248407  0.8159093394047258  1.0000
  H   H906      1.0  0.5061866048126268  0.8109948864201175  0.7933704705800287  1.0000
  H   H907      1.0  0.5144592056654625  0.7554058202805042  0.7997503076454898  1.0000
  H   H908      1.0  0.4977109067903081  0.7678036320181113  0.8247290524298455  1.0000
  C   C1175     1.0  0.6533650437053008  0.8321585092474036  0.5371813467225811  1.0000
  C   C1176     1.0  0.65671956714454  0.8206644775499075  0.5627742671795407  1.0000
  H   H909      1.0  0.6762317474652313  0.8620103730035124  0.5338117043847518  1.0000
  H   H910      1.0  0.6266543072486992  0.8326665520937101  0.5354830999706163  1.0000
  H   H911      1.0  0.6355909503291189  0.7898069753763687  0.5652794809767104  1.0000
  H   H912      1.0  0.6851778348665675  0.8235215858135788  0.5645471601732648  1.0000
  C   C1177     1.0  0.8244062646043138  0.017750794934432566  0.6700230158100862  1.0000
  C   C1178     1.0  0.8519926072501433  0.042118632626859824  0.6495373661532016  1.0000
  H   H913      1.0  0.8260791045269986  0.035340793877903356  0.685665073118002  1.0000
  H   H914      1.0  0.8344518597188936  0.9990217021933463  0.6772932375434374  1.0000
  H   H915      1.0  0.84589382623437  0.02652116260679023  0.6322248082982913  1.0000
  H   H916      1.0  0.8801381932786879  0.04499486284300598  0.6533799470299464  1.0000
  C   C1179     1.0  0.5909230603868482  0.4703663268878616  0.7293984623846348  1.0000
  C   C1180     1.0  0.5557222307712625  0.4738701985103982  0.7245473517091582  1.0000
  H   H917      1.0  0.5927342121135605  0.4506014642775007  0.716087444309784  1.0000
  H   H918      1.0  0.585237626825798  0.45524120445188015  0.7463683993601039  1.0000
  H   H919      1.0  0.5616797274822586  0.49279101075519643  0.7086120796674256  1.0000
  H   H920      1.0  0.5490730092554534  0.48804548414159354  0.7392080883999904  1.0000
  C   C1181     1.0  0.8216771934588762  0.6165859430859822  0.6274510289811837  1.0000
  C   C1182     1.0  0.8383270013864812  0.6179338489096454  0.6518938244901747  1.0000
  H   H921      1.0  0.8196002098105949  0.6428746192900892  0.6266474630836848  1.0000
  H   H922      1.0  0.7922209826831033  0.5909871460424365  0.6272838357202649  1.0000
  H   H923      1.0  0.8672459779740959  0.6435383392580559  0.653541233034323  1.0000
  H   H924      1.0  0.8432975255150437  0.593086462535058  0.6532703942722567  1.0000
  C   C1183     1.0  0.8185236805493151  0.49606211227329094  0.8693288393226523  1.0000
  C   C1184     1.0  0.8132145983496832  0.49016558441864233  0.8973614567314964  1.0000
  H   H925      1.0  0.7935201743876906  0.4711283087392638  0.8611607145949028  1.0000
  H   H926      1.0  0.8428567843053251  0.49329090394376524  0.8630957886318734  1.0000
  H   H927      1.0  0.8134482942617041  0.4639030417314597  0.9026529265310204  1.0000
  H   H928      1.0  0.783738072590208  0.4833043232158108  0.9002703330590424  1.0000
  C   C1185     1.0  0.7343570918263613  0.7154878335308799  0.841851146013217  1.0000
  C   C1186     1.0  0.755985333947296  0.7118075170994229  0.862562345465345  1.0000
  H   H929      1.0  0.7131086249696382  0.6857408415991118  0.8353048317179331  1.0000
  H   H930      1.0  0.7540624532789533  0.7277466891347519  0.8266122142123554  1.0000
  H   H931      1.0  0.7361272543671167  0.6963227330833814  0.8773054257322187  1.0000
  H   H932      1.0  0.7763988722630434  0.7406447197333718  0.8701576453162855  1.0000
  C   C1187     1.0  0.6915518346070286  0.7269216033151248  0.7479776792483892  1.0000
  C   C1188     1.0  0.7213309112516839  0.7636263023220754  0.7610112352735359  1.0000
  H   H933      1.0  0.6837102078582639  0.7345877405407738  0.7304814594173522  1.0000
  H   H934      1.0  0.6653345340352242  0.7142878920089464  0.7591191231023259  1.0000
  H   H935      1.0  0.7491547458462515  0.7716218373471347  0.7524027514217395  1.0000
  H   H936      1.0  0.722222198363127  0.7582642707618585  0.7799932196287966  1.0000
  C   C1189     1.0  0.1660670830954244  0.5761275807788756  0.8210683434514876  1.0000
  C   C1190     1.0  0.13178346961603568  0.5775727650458883  0.8110618088847291  1.0000
  H   H937      1.0  0.1691213391398898  0.5866626000952171  0.8395133044847397  1.0000
  H   H938      1.0  0.19294141919818217  0.5962265192344295  0.8113965534221141  1.0000
  H   H939      1.0  0.10685975616949107  0.5598146405420965  0.8227563867603342  1.0000
  H   H940      1.0  0.12453010980131252  0.5640854412808242  0.7931538711734853  1.0000
  C   C1191     1.0  0.09379449249812179  0.7500927656958927  0.9493667952348006  1.0000
  C   C1192     1.0  0.06523467974681016  0.7279541135911122  0.9288363936344153  1.0000
  H   H941      1.0  0.09112555678028489  0.7309432975771144  0.9638807455509506  1.0000
  H   H942      1.0  0.08530992415178867  0.7694442558105528  0.9584496496877045  1.0000
  H   H943      1.0  0.0688436405496406  0.748199385765497  0.9147305810429917  1.0000
  H   H944      1.0  0.07400504145281078  0.7087653916953401  0.9202869823480397  1.0000
  C   C1193     1.0  0.34913193961387134  0.9852878936596811  0.888242800723792  1.0000
  C   C1194     1.0  0.34537749328005946  0.9988226479491107  0.8632730063281364  1.0000
  H   H945      1.0  0.34318112033634773  0.0017336172466155798  0.9023862049477561  1.0000
  H   H946      1.0  0.3782793610201037  0.9905289624199678  0.8914613605003631  1.0000
  H   H947      1.0  0.3150946399801033  0.98984048672108  0.8599255609542833  1.0000
  H   H948      1.0  0.3540846997365019  0.984880191298981  0.8495753314614394  1.0000
  C   C1195     1.0  0.015429754828679686  0.6983078950070037  0.8071665997224271  1.0000
  C   C1196     1.0  0.9992348578340866  0.725038383245331  0.809678078791687  1.0000
  H   H949      1.0  0.003779099916285477  0.6797207068734116  0.7914640377868984  1.0000
  H   H950      1.0  0.004978512743231759  0.6781037584262612  0.8225648484421514  1.0000
  H   H951      1.0  0.011503602093440151  0.7443874094338795  0.8259266144379246  1.0000
  H   H952      1.0  0.006977735748773866  0.7431667843323126  0.7932952873149475  1.0000
  C   C1197     1.0  0.3066087591900922  0.7404186473229559  0.9720059084129393  1.0000
  C   C1198     1.0  0.33680293580139387  0.7748680981558986  0.956852900343599  1.0000
  H   H953      1.0  0.31962628324153936  0.724734281803637  0.9788404252243675  1.0000
  H   H954      1.0  0.2842801313355854  0.7198963862142813  0.9600929410530507  1.0000
  H   H955      1.0  0.35348320247815057  0.7652097081624109  0.9460945331260288  1.0000
  H   H956      1.0  0.358690239595973  0.7970472805510176  0.9685206270531042  1.0000
  C   C1199     1.0  0.2889003405012724  0.8278446701093829  0.7306318259475146  1.0000
  C   C1200     1.0  0.27349551060683003  0.8158291421477096  0.7051769204843112  1.0000
  H   H957      1.0  0.31493032499152834  0.8263883121366498  0.7335442824305407  1.0000
  H   H958      1.0  0.29840345758470954  0.858189009568158  0.7325597396735251  1.0000
  H   H959      1.0  0.24483796383525785  0.8129919660897523  0.7036875758046076  1.0000
  H   H960      1.0  0.2671748144321903  0.7859674772872212  0.7012978220216698  1.0000
