data_image0
_chemical_formula_structural       C6H4C38H24C6H4C38H24C6H4C38H24C6H4C38H24C6H4C38H24C6H4C38H24C6H4C38H24C6H4C38H24C6H4C38H24C6H4C38H24C6H4C38H24C6H4C38H24C6H4C38H24C6H4C38H24C6H4C38H24C6H4C38H24C6H4C38H24C6H4C38H24C2H4C2H4C2H4C2H4C2H4C2H4C2H4C2H4C2H4C2H4C2H4C2H4C2H4C2H4C2H4C2H4C2H4C2H4C2H4C2H4C2H4C2H4C2H4C2H4C2H4C2H4C2H4C2H4C2H4C2H4C2H4C2H4C2H4C2H4C2H4C2H4C2H4C2H4C2H4C2H4C2H4C2H4C2H4C2H4C2H4C2H4C2H4C2H4C2H4C2H4C2H4C2H4C2H4C2H4C6H4C38H24C6H4C38H24C6H4C38H24C6H4C38H24C6H4C38H24C6H4C38H24C6H4C38H24C6H4C38H24C6H4C38H24C6H4C38H24C6H4C38H24C6H4C38H24C6H4C38H24C6H4C38H24C6H4C38H24C6H4C38H24C6H4C38H24C6H4C38H24C2H4C2H4C2H4C2H4C2H4C2H4C2H4C2H4C2H4C2H4C2H4C2H4C2H4C2H4C2H4C2H4C2H4C2H4C2H4C2H4C2H4C2H4C2H4C2H4C2H4C2H4C2H4C2H4C2H4C2H4C2H4C2H4C2H4C2H4C2H4C2H4C2H4C2H4C2H4C2H4C2H4C2H4C2H4C2H4C2H4C2H4C2H4C2H4C2H4C2H4C2H4C2H4C2H4C2H4
_chemical_formula_sum              "C1800 H1440"
_cell_length_a       60.68626974172956
_cell_length_b       60.92639996018785
_cell_length_c       42.835348151113465
_cell_angle_alpha    90.49980000149617
_cell_angle_beta     90.21339999879919
_cell_angle_gamma    120.1776000000356

_space_group_name_H-M_alt    "P 1"
_space_group_IT_number       1

loop_
  _space_group_symop_operation_xyz
  'x, y, z'

loop_
  _atom_site_type_symbol
  _atom_site_label
  _atom_site_symmetry_multiplicity
  _atom_site_fract_x
  _atom_site_fract_y
  _atom_site_fract_z
  _atom_site_occupancy
  C   C1        1.0  0.5445406941896445  0.407153445916807  0.13736535448956932  1.0000
  C   C2        1.0  0.5442019060964584  0.4164277001372538  0.1085407654521642  1.0000
  C   C3        1.0  0.5403186358974853  0.4366229882916121  0.10619461326453504  1.0000
  C   C4        1.0  0.5348098404631173  0.44653697025479433  0.13164344207893988  1.0000
  C   C5        1.0  0.5365057296107074  0.4377573819962312  0.16114159555671817  1.0000
  C   C6        1.0  0.541850656802236  0.41851779822065877  0.1643184383089393  1.0000
  H   H1        1.0  0.5467618093049993  0.4071493683002762  0.08857594188556726  1.0000
  H   H2        1.0  0.541031392735863  0.4435458797266545  0.08319046148830964  1.0000
  H   H3        1.0  0.5357807468738099  0.44669004244520577  0.1826183786782048  1.0000
  H   H4        1.0  0.5425437845472225  0.4125596021040746  0.18715052180351652  1.0000
  C   C7        1.0  0.49073783954676675  0.4476933291203555  0.1649847651418076  1.0000
  C   C8        1.0  0.5121483089695968  0.46981562681282124  0.15615091497529107  1.0000
  C   C9        1.0  0.5167713779403291  0.4918807515657015  0.1716762834868807  1.0000
  C   C10       1.0  0.5026107630115418  0.49133008131519057  0.1968124943513168  1.0000
  C   C11       1.0  0.48199069719477766  0.4684654761154621  0.20565264824049886  1.0000
  C   C12       1.0  0.475616516154112  0.44675840020499763  0.18928561601745508  1.0000
  C   C13       1.0  0.5296649125207066  0.4696847392496422  0.128734624275609  1.0000
  C   C14       1.0  0.5126570967990537  0.47063731454683355  0.10106128177389892  1.0000
  C   C15       1.0  0.5148426739487086  0.4938226123895425  0.09258417561600985  1.0000
  C   C16       1.0  0.4996304026902065  0.4951337019199908  0.06983007150551743  1.0000
  C   C17       1.0  0.483583077837135  0.47363758161342007  0.0529122806984735  1.0000
  C   C18       1.0  0.48147477196405414  0.45080494853932634  0.059436166714885254  1.0000
  C   C19       1.0  0.49470609944252414  0.4489193932805619  0.08455860277794112  1.0000
  C   C20       1.0  0.5733694713216715  0.5018007731570325  0.1554458319215902  1.0000
  C   C21       1.0  0.5976690222653045  0.5225807688209603  0.154996866785078  1.0000
  C   C22       1.0  0.6076778402827611  0.5356754962612988  0.1277360679111459  1.0000
  C   C23       1.0  0.5929193968681116  0.5262913818287915  0.10058756868914426  1.0000
  C   C24       1.0  0.5701521630966295  0.5040273486928554  0.10129755463825166  1.0000
  C   C25       1.0  0.5585657820390457  0.4926885365892001  0.12909650465085284  1.0000
  C   C26       1.0  0.633078953481485  0.5632088005357602  0.12803164246279666  1.0000
  C   C27       1.0  0.5962059801954562  0.6022940450818306  0.16857555234906568  1.0000
  C   C28       1.0  0.6108778626833318  0.5963101329277446  0.1876849374028282  1.0000
  C   C29       1.0  0.6233136386587066  0.5844903022402472  0.17503710155245158  1.0000
  C   C30       1.0  0.620830016785718  0.5782485692989391  0.14332961001600725  1.0000
  C   C31       1.0  0.6064395944026458  0.5850576280729206  0.12490546296310966  1.0000
  C   C32       1.0  0.5938219861526206  0.5962652133090174  0.13765532573218406  1.0000
  C   C33       1.0  0.6465674401914921  0.5735663400089396  0.09512270808054282  1.0000
  C   C34       1.0  0.6487242327258523  0.5579497415160325  0.07300364566080086  1.0000
  C   C35       1.0  0.660048176318453  0.5675418250855333  0.045016751324282726  1.0000
  C   C36       1.0  0.6715651789704316  0.593297231680692  0.039521305987192945  1.0000
  C   C37       1.0  0.6710322578220922  0.6090498635522992  0.06214466622017792  1.0000
  C   C38       1.0  0.6588502319133072  0.5994394203412067  0.08943254775445088  1.0000
  C   C39       1.0  0.6756938076274485  0.5864725323951132  0.15904175549546465  1.0000
  C   C40       1.0  0.6977995027174616  0.5888437491364334  0.17026051407044293  1.0000
  C   C41       1.0  0.7019903694723796  0.5685417711240183  0.16780813248233895  1.0000
  C   C42       1.0  0.6829089237470609  0.545790820333458  0.15528870579737142  1.0000
  C   C43       1.0  0.66020720887005  0.5432805653203467  0.14650225028645134  1.0000
  C   C44       1.0  0.6564004969521426  0.5639411173721032  0.1466418660699325  1.0000
  H   H5        1.0  0.4863550357587329  0.42983116675148875  0.15358576679283692  1.0000
  H   H6        1.0  0.531565968768023  0.5108386245068532  0.16423765727033648  1.0000
  H   H7        1.0  0.5069869158411227  0.508515157255272  0.2090466192178663  1.0000
  H   H8        1.0  0.46057437639549975  0.4290411196094238  0.19661170911085893  1.0000
  H   H9        1.0  0.5281941125626004  0.5114248538888164  0.10419306458262194  1.0000
  H   H10       1.0  0.5011635378899868  0.5129385381688353  0.06443058283566971  1.0000
  H   H11       1.0  0.4685910523138659  0.4341919265074194  0.04649649185221522  1.0000
  H   H12       1.0  0.4915812549526493  0.43058927689702753  0.09116560454505405  1.0000
  H   H13       1.0  0.5662762436287374  0.4926318897491094  0.17769867334456746  1.0000
  H   H14       1.0  0.6074939369940313  0.5295245871790083  0.17675825131135317  1.0000
  H   H15       1.0  0.5989280194994973  0.5357365928040226  0.07843745459849429  1.0000
  H   H16       1.0  0.5615267881360901  0.4959770071853744  0.07881310977511835  1.0000
  H   H17       1.0  0.6123359322870691  0.5993536573310652  0.21320801006196047  1.0000
  H   H18       1.0  0.6332928195045252  0.578700112843831  0.19091454464847196  1.0000
  H   H19       1.0  0.6040080737219742  0.5798654390743115  0.1002046759050153  1.0000
  H   H20       1.0  0.5818251097958147  0.6002366815606724  0.12274842245544662  1.0000
  H   H21       1.0  0.6410981131279423  0.5378584304712104  0.0756857629193822  1.0000
  H   H22       1.0  0.6617025062230869  0.5541847692905594  0.029198843386770194  1.0000
  H   H23       1.0  0.6798728166240033  0.6287584429904514  0.058970858593684644  1.0000
  H   H24       1.0  0.6589806409331771  0.6122287954943141  0.10772805217072952  1.0000
  H   H25       1.0  0.6742534855397524  0.6036348611707079  0.15947017516551137  1.0000
  H   H26       1.0  0.7114511816931911  0.6068673549410925  0.1807130201347436  1.0000
  H   H27       1.0  0.6867400336267545  0.5300337789086136  0.15203224936259666  1.0000
  H   H28       1.0  0.6461252474895338  0.524739044337209  0.1376151686840925  1.0000
  C   C45       1.0  0.4698486804090312  0.48297920823390866  0.466650580657159  1.0000
  C   C46       1.0  0.4583472542201099  0.4972326164505209  0.4634403515219315  1.0000
  C   C47       1.0  0.4474281805806734  0.4977389771164863  0.43557322791605857  1.0000
  C   C48       1.0  0.4490426270208471  0.4845234494399408  0.409382427596799  1.0000
  C   C49       1.0  0.4573697996414403  0.4672376330271171  0.41408920718706704  1.0000
  C   C50       1.0  0.468544104830896  0.467393141302438  0.442070731685759  1.0000
  H   H29       1.0  0.4589187454595858  0.5089022977722244  0.48273908172686997  1.0000
  H   H30       1.0  0.44064134506259134  0.5104361904136838  0.4328135982158121  1.0000
  H   H31       1.0  0.45701257541269846  0.4550954585806476  0.39462704713524427  1.0000
  H   H32       1.0  0.4775461679710897  0.455701036738613  0.4445221793890236  1.0000
  C   C51       1.0  0.47356933528360023  0.4837114252796178  0.34296687253511443  1.0000
  C   C52       1.0  0.4485823924539647  0.47828678400613883  0.3465646638786675  1.0000
  C   C53       1.0  0.431929708442726  0.4663910223664874  0.3217279965764494  1.0000
  C   C54       1.0  0.43983474987517845  0.4593839894468661  0.29495818765679965  1.0000
  C   C55       1.0  0.46474229362700087  0.4652292669610113  0.292607132573764  1.0000
  C   C56       1.0  0.48143493544127225  0.4766347339869879  0.31644687780998787  1.0000
  C   C57       1.0  0.4412519147084844  0.48990540737918903  0.3754076971416496  1.0000
  C   C58       1.0  0.45642267199135017  0.5194094412580337  0.3669350269367474  1.0000
  C   C59       1.0  0.45028152009999234  0.5288228845887987  0.34007416424526216  1.0000
  C   C60       1.0  0.46662872431694546  0.5528456320688068  0.32951659613653583  1.0000
  C   C61       1.0  0.4895169784991304  0.5682979793811336  0.34487199760736575  1.0000
  C   C62       1.0  0.49557316100483473  0.5596357227895795  0.37071259111187327  1.0000
  C   C63       1.0  0.4795317087876024  0.5360335029532406  0.3817441057765641  1.0000
  C   C64       1.0  0.39751610718924796  0.4498337732050197  0.38352549110760303  1.0000
  C   C65       1.0  0.3718260137321539  0.43534296073222595  0.37568085845715626  1.0000
  C   C66       1.0  0.3591669471630193  0.4465771951464946  0.36234264823929835  1.0000
  C   C67       1.0  0.37211475678320016  0.47269101823065107  0.36175663550261317  1.0000
  C   C68       1.0  0.39702233424923017  0.4875367377312993  0.3718729430247519  1.0000
  C   C69       1.0  0.41102934136699787  0.4759133935637284  0.3787463354422862  1.0000
  C   C70       1.0  0.3321189703005718  0.4288810271917866  0.34531092348185505  1.0000
  C   C71       1.0  0.36186131225949225  0.39896164656443023  0.2713542483425089  1.0000
  C   C72       1.0  0.3489475166124431  0.38443269018689374  0.2962539528713824  1.0000
  C   C73       1.0  0.3402826691236437  0.3941665192373764  0.3192485323280046  1.0000
  C   C74       1.0  0.3417064683791996  0.4174924424512471  0.3164982414761515  1.0000
  C   C75       1.0  0.35516222318529783  0.43194279026028054  0.2911409333760019  1.0000
  C   C76       1.0  0.3649539718652214  0.4232003294838975  0.2685549285365905  1.0000
  C   C77       1.0  0.3170372742916089  0.4428107077109712  0.33552847978978  1.0000
  C   C78       1.0  0.3149178968524676  0.4599185709619504  0.35525446230871605  1.0000
  C   C79       1.0  0.3064856139323274  0.47582619974166723  0.34409453847861615  1.0000
  C   C80       1.0  0.29857413355630646  0.4741466920996181  0.31312691720613806  1.0000
  C   C81       1.0  0.29749380818220333  0.45490428015922746  0.29506791912542196  1.0000
  C   C82       1.0  0.3056193913841485  0.4391234649883224  0.30618815284984996  1.0000
  C   C83       1.0  0.2897188582308466  0.3872768157680669  0.3543439245903606  1.0000
  C   C84       1.0  0.27230287555231925  0.36746269981589186  0.37188228187314526  1.0000
  C   C85       1.0  0.2755945976671343  0.36768578547550074  0.40378612269706055  1.0000
  C   C86       1.0  0.2952483225019681  0.38898470191093665  0.41806288717845413  1.0000
  C   C87       1.0  0.3130904446461712  0.40856538533658493  0.39977275260000167  1.0000
  C   C88       1.0  0.31106343203436154  0.40749648516351794  0.3675864116121863  1.0000
  H   H33       1.0  0.48708321845440106  0.4937466599652583  0.3615325031411718  1.0000
  H   H34       1.0  0.41300652962312717  0.462290291624006  0.3211910127938295  1.0000
  H   H35       1.0  0.4262721179215286  0.4517036743013346  0.2758812551012042  1.0000
  H   H36       1.0  0.5011623569314181  0.4811630458993658  0.3145464221619332  1.0000
  H   H37       1.0  0.43317775692612603  0.5165752043496384  0.32717021047769684  1.0000
  H   H38       1.0  0.46138175349565436  0.5592742671137511  0.3081656539971502  1.0000
  H   H39       1.0  0.5136551143107281  0.570796671957146  0.3820219365162674  1.0000
  H   H40       1.0  0.48658974603050764  0.5303279589737406  0.40097045990645375  1.0000
  H   H41       1.0  0.4076952497359211  0.4394990138838287  0.3882439442583629  1.0000
  H   H42       1.0  0.36198452028393613  0.4149790173748403  0.38072617130168473  1.0000
  H   H43       1.0  0.36418718142852335  0.48340899368087337  0.3509118978057902  1.0000
  H   H44       1.0  0.4059571374383752  0.5078798328162885  0.36892653635663764  1.0000
  H   H45       1.0  0.34670547624107156  0.36579718904766867  0.29908128922248095  1.0000
  H   H46       1.0  0.33184534682848005  0.3834016981506169  0.3400601559726721  1.0000
  H   H47       1.0  0.35811250043647846  0.4508257940821095  0.2880007456037248  1.0000
  H   H48       1.0  0.3746810348511074  0.4345595506782433  0.24927954545263548  1.0000
  H   H49       1.0  0.32048385335778734  0.46226842654923256  0.37956815410090444  1.0000
  H   H50       1.0  0.30693607371826764  0.48991630099767824  0.3591674397855461  1.0000
  H   H51       1.0  0.29087810593296437  0.4518519257820289  0.2707542273332336  1.0000
  H   H52       1.0  0.3060682150184618  0.42564822036337735  0.29013233774951586  1.0000
  H   H53       1.0  0.2861454043670892  0.38597760343587306  0.3295282696970276  1.0000
  H   H54       1.0  0.25688959970228603  0.3508203110141035  0.36094882511658505  1.0000
  H   H55       1.0  0.29540431538740125  0.389850264801222  0.4429929429646062  1.0000
  H   H56       1.0  0.3281755149983425  0.42552422925549127  0.410834618521971  1.0000
  C   C89       1.0  0.528737922939922  0.7921821546987994  0.29341494295979215  1.0000
  C   C90       1.0  0.5372701656563329  0.7900301810638303  0.2641913516247794  1.0000
  C   C91       1.0  0.5610284447862725  0.7927819853988045  0.2604488081311288  1.0000
  C   C92       1.0  0.5759857788246584  0.7959122811856811  0.28667696384396196  1.0000
  C   C93       1.0  0.5662613396491837  0.79590498691456  0.31546863344078035  1.0000
  C   C94       1.0  0.5433786289669373  0.794977654730861  0.31900805698187484  1.0000
  H   H57       1.0  0.5263720935376898  0.7884073980129743  0.24367623641660205  1.0000
  H   H58       1.0  0.5670996136681715  0.792005596765975  0.23703631520890245  1.0000
  H   H59       1.0  0.5770073953734596  0.7969049541589713  0.33616819090472716  1.0000
  H   H60       1.0  0.5366356064739901  0.794308941506489  0.3423972027831177  1.0000
  C   C95       1.0  0.6212841153937905  0.8419554901887776  0.3176399156922433  1.0000
  C   C96       1.0  0.6223367466106281  0.8206128466705261  0.30907152229130885  1.0000
  C   C97       1.0  0.64042005865077  0.8165477691941276  0.3235397331647668  1.0000
  C   C98       1.0  0.6557250563799057  0.832321763238366  0.34735379656790893  1.0000
  C   C99       1.0  0.6536136739286372  0.8530690369484526  0.35581245850022103  1.0000
  C   C100      1.0  0.6360443670577319  0.8574480095732794  0.341215838461354  1.0000
  C   C101      1.0  0.6046818496609263  0.8022158168549195  0.28229937865956084  1.0000
  C   C102      1.0  0.6208382775850518  0.8193025705348272  0.2532415518835308  1.0000
  C   C103      1.0  0.6437097707380882  0.8205968862840173  0.24537590682419888  1.0000
  C   C104      1.0  0.6585935349415686  0.8353319090879868  0.22191111635096958  1.0000
  C   C105      1.0  0.6513493304426425  0.8503178644654469  0.2062869895176198  1.0000
  C   C106      1.0  0.6285462361825978  0.849275593021841  0.2137239814356952  1.0000
  C   C107      1.0  0.613852476531944  0.8342879406161566  0.23698728625483717  1.0000
  C   C108      1.0  0.5947083968182495  0.760029062435893  0.31041398174785856  1.0000
  C   C109      1.0  0.595601482371497  0.7381198932911959  0.3116770609930644  1.0000
  C   C110      1.0  0.5996395759223451  0.727697393210735  0.28511737616226596  1.0000
  C   C111      1.0  0.602953596959061  0.7401737258484499  0.25696074825619797  1.0000
  C   C112      1.0  0.6024671673403132  0.7624554677810671  0.25612258661289133  1.0000
  C   C113      1.0  0.6004931089306911  0.7740858282536226  0.28309551548509726  1.0000
  C   C114      1.0  0.6029537292812045  0.7033283263038164  0.2874077287307446  1.0000
  C   C115      1.0  0.6806660012415453  0.7447325336594477  0.32688070617750176  1.0000
  C   C116      1.0  0.6600902033510163  0.7320303476391061  0.3466650564988965  1.0000
  C   C117      1.0  0.6357822304172754  0.7189252263368864  0.334788376054604  1.0000
  C   C118      1.0  0.63123162991964  0.7178587464978528  0.3028448451250167  1.0000
  C   C119      1.0  0.6521531244681386  0.7313298470463786  0.2832472717714898  1.0000
  C   C120      1.0  0.676643127438465  0.7444463136759821  0.2951192827915856  1.0000
  C   C121      1.0  0.6002189852037974  0.6870209429176691  0.25655917777528225  1.0000
  C   C122      1.0  0.5811674373642916  0.6816897583095466  0.2346759212774734  1.0000
  C   C123      1.0  0.5790082778288131  0.66800219326217  0.20817693896123196  1.0000
  C   C124      1.0  0.5953447965264531  0.6587880397474102  0.20379328352537512  1.0000
  C   C125      1.0  0.6135670972461378  0.6635935947598653  0.2255156783596079  1.0000
  C   C126      1.0  0.6151447391543012  0.6757449772703882  0.2523777084071423  1.0000
  C   C127      1.0  0.5835805583384245  0.6636782202098929  0.3235280596042751  1.0000
  C   C128      1.0  0.5637198526753655  0.6435581372934189  0.33818071273350253  1.0000
  C   C129      1.0  0.5395827412466342  0.6403742602767353  0.3370530467900008  1.0000
  C   C130      1.0  0.5355983343858616  0.6566116076057806  0.3195427060523963  1.0000
  C   C131      1.0  0.5553871256090898  0.6769463266571485  0.3052799498435929  1.0000
  C   C132      1.0  0.5800075756462202  0.6806060557955524  0.30614612803207975  1.0000
  H   H61       1.0  0.6074151233859878  0.8459904724446354  0.30739052958049884  1.0000
  H   H62       1.0  0.6434079284111915  0.80135236922389  0.31605698088956385  1.0000
  H   H63       1.0  0.6683422064214616  0.8273463309063827  0.3590647124532188  1.0000
  H   H64       1.0  0.6348529437971326  0.8736093623341559  0.35017646349481074  1.0000
  H   H65       1.0  0.6496148471244287  0.808861384287772  0.25775921979383276  1.0000
  H   H66       1.0  0.6765142058645309  0.8355991422054626  0.21786342598606492  1.0000
  H   H67       1.0  0.6218837137399474  0.8601662176121853  0.20077123218527443  1.0000
  H   H68       1.0  0.597711352707363  0.8360122111619585  0.2429221244088359  1.0000
  H   H69       1.0  0.5929122664857011  0.7681911602702026  0.3324910193498302  1.0000
  H   H70       1.0  0.594234527818054  0.7298146266691227  0.3342840782413609  1.0000
  H   H71       1.0  0.6069428921827124  0.7332529813569894  0.2359903641888429  1.0000
  H   H72       1.0  0.6048818161217429  0.771602276482072  0.2335599288944634  1.0000
  H   H73       1.0  0.6622730115533326  0.7317306271058927  0.37202469931114446  1.0000
  H   H74       1.0  0.6201730539413042  0.710314017999068  0.35089322010900337  1.0000
  H   H75       1.0  0.6489058175435292  0.7313294943323828  0.25845029457494356  1.0000
  H   H76       1.0  0.6927834266105997  0.7542927702114653  0.280270513846097  1.0000
  H   H77       1.0  0.5684085086329712  0.6889350666087142  0.23849317555827113  1.0000
  H   H78       1.0  0.5649017761376347  0.6660221948850799  0.19106326580913668  1.0000
  H   H79       1.0  0.6256378208595109  0.6554751341484151  0.22343521640877065  1.0000
  H   H80       1.0  0.629833332253539  0.6783236827355192  0.2687930691706219  1.0000
  H   H81       1.0  0.6023147714736335  0.6653914131194131  0.3237802085108966  1.0000
  H   H82       1.0  0.567348579267979  0.630862527749038  0.3515772907538191  1.0000
  H   H83       1.0  0.5166554132322712  0.6542946280290793  0.3175745437534896  1.0000
  H   H84       1.0  0.551224038767303  0.6888726163469033  0.2914654583576722  1.0000
  C   C133      1.0  0.6731841847816241  0.86327212377718  0.11998248903253464  1.0000
  C   C134      1.0  0.6991012553916849  0.8764786996069854  0.11708511131848567  1.0000
  C   C135      1.0  0.7096480363716134  0.8869038397252931  0.08924366954569458  1.0000
  C   C136      1.0  0.6946584870620447  0.8820929701052316  0.06279768519408564  1.0000
  C   C137      1.0  0.668620593745712  0.8711054549569498  0.06698265663037312  1.0000
  C   C138      1.0  0.6580685221109133  0.8616616030343567  0.0949833257682715  1.0000
  H   H85       1.0  0.710992443199877  0.8777239198722813  0.13648423414365307  1.0000
  H   H86       1.0  0.7306929607939353  0.8961633610532788  0.08579786795974385  1.0000
  H   H87       1.0  0.656676558614342  0.8695738099717678  0.04799164147999681  1.0000
  H   H88       1.0  0.6377458554760325  0.8528488397549334  0.09810600319981096  1.0000
  C   C139      1.0  0.6693155073894622  0.8572696381377072  0.4945573943687038  1.0000
  C   C140      1.0  0.6905787951523785  0.8815874008172259  0.4996914262729694  1.0000
  C   C141      1.0  0.69692858238233  0.8984702314046549  0.4751279202862579  1.0000
  C   C142      1.0  0.6838049926091586  0.8924098681156507  0.44809195418739656  1.0000
  C   C143      1.0  0.6624592822149906  0.8689238672536459  0.44373538141188057  1.0000
  C   C144      1.0  0.6551340585527434  0.8516728468627265  0.467551779527121  1.0000
  C   C145      1.0  0.7085129312687716  0.88825404870818  0.029462198911463764  1.0000
  C   C146      1.0  0.7206490594466494  0.8705935386409447  0.023055235276937244  1.0000
  C   C147      1.0  0.735617339932819  0.874204623989926  0.4967496890290519  1.0000
  C   C148      1.0  0.742509223588538  0.8567123673638495  0.48779373341979176  1.0000
  C   C149      1.0  0.7344476229906003  0.8350784609039759  0.005623929714869802  1.0000
  C   C150      1.0  0.7210264129208663  0.8316531709799238  0.03190220652544649  1.0000
  C   C151      1.0  0.7134284713285156  0.84855124974444  0.03991563886060379  1.0000
  C   C152      1.0  0.7169193256442844  0.9339113457656264  0.03713849881961973  1.0000
  C   C153      1.0  0.7303754550134822  0.9592725664321917  0.03133557189917761  1.0000
  C   C154      1.0  0.7531078005234515  0.9697946993249622  0.014938795444000855  1.0000
  C   C155      1.0  0.7641009216365564  0.954904323119235  0.011383664461492526  1.0000
  C   C156      1.0  0.751822287047051  0.9302316361934283  0.022268017051616514  1.0000
  C   C157      1.0  0.7268587196451394  0.9183745367610543  0.03102388783404825  1.0000
  C   C158      1.0  0.7639417844013874  0.9970062492528347  0.4976158672175387  1.0000
  C   C159      1.0  0.7024193571283115  0.9676904865500471  0.4270725411659762  1.0000
  C   C160      1.0  0.7027297909814068  0.9817327938116823  0.4525886096888134  1.0000
  C   C161      1.0  0.7220442997651614  0.991066353914611  0.4737130847546594  1.0000
  C   C162      1.0  0.7426751455311246  0.9873622015426324  0.470295066242679  1.0000
  C   C163      1.0  0.74295337569208  0.9738909947909041  0.4443587495421393  1.0000
  C   C164      1.0  0.7232638987915797  0.9643845920238439  0.4228467122679676  1.0000
  C   C165      1.0  0.792015686592611  0.009172260580523069  0.48509480623410234  1.0000
  C   C166      1.0  0.8114504608785478  0.009341298286662303  0.0029039901202951857  1.0000
  C   C167      1.0  0.8347385778526354  0.016268392399532462  0.4898739618994191  1.0000
  C   C168      1.0  0.8399160323540338  0.024931118653770665  0.4597281592855593  1.0000
  C   C169      1.0  0.8217034616867671  0.027572121354911765  0.44319372820506403  1.0000
  C   C170      1.0  0.7987382166864673  0.020840152775888347  0.456370843288136  1.0000
  C   C171      1.0  0.7677786378378412  0.041527662104396866  0.003947606428256534  1.0000
  C   C172      1.0  0.7630685720569209  0.05800818785279743  0.020629796266448206  1.0000
  C   C173      1.0  0.7575324322213213  0.054033278518116304  0.05241031759732884  1.0000
  C   C174      1.0  0.7595788660630958  0.03522794876135564  0.06722850181432907  1.0000
  C   C175      1.0  0.7639896219649077  0.018704679969588807  0.04982835948776661  1.0000
  C   C176      1.0  0.7654898335651915  0.020076813135819216  0.0179774465871208  1.0000
  H   H89       1.0  0.6650244669143961  0.8429653464809548  0.010757961619135448  1.0000
  H   H90       1.0  0.7143129491999503  0.9173511445428457  0.4759684166416629  1.0000
  H   H91       1.0  0.6908426964196182  0.9062971734458259  0.42910607540363666  1.0000
  H   H92       1.0  0.6384960608908017  0.8327466959554694  0.4640777279247803  1.0000
  H   H93       1.0  0.7407417817093876  0.8900671643533544  0.48087598147238886  1.0000
  H   H94       1.0  0.7535195660440074  0.8593222408596537  0.466764981549978  1.0000
  H   H95       1.0  0.7145237088513362  0.8148121812960459  0.04542532594149351  1.0000
  H   H96       1.0  0.7010155171119701  0.8433095973833081  0.059585354817969644  1.0000
  H   H97       1.0  0.697698155800343  0.9265770950107178  0.04630294421926223  1.0000
  H   H98       1.0  0.7202538712239742  0.9690269406038688  0.03582008689768303  1.0000
  H   H99       1.0  0.7819508551214063  0.9615009212877567  0.49831161142284613  1.0000
  H   H100      1.0  0.761832098935967  0.9198477697200531  0.01920289027330131  1.0000
  H   H101      1.0  0.6867375211954083  0.9843263724597872  0.4554486320092888  1.0000
  H   H102      1.0  0.7195789987033437  0.0007001424298358496  0.49276667018927145  1.0000
  H   H103      1.0  0.7572351273245376  0.9687610954919806  0.44133529737477956  1.0000
  H   H104      1.0  0.7226885961839246  0.9527749963360133  0.4030997173401465  1.0000
  H   H105      1.0  0.8074857164865339  0.0029331178072784514  0.02688467675488839  1.0000
  H   H106      1.0  0.8487203518554093  0.01454637958561231  0.003795850141863899  1.0000
  H   H107      1.0  0.8254122407595353  0.03366326338982421  0.4188800364128757  1.0000
  H   H108      1.0  0.7855876831823372  0.023586327510285707  0.4421874672906763  1.0000
  H   H109      1.0  0.7720755665940469  0.0443651692547036  0.4792603607003325  1.0000
  H   H110      1.0  0.7629281282432417  0.07378268017999866  0.008640377745934513  1.0000
  H   H111      1.0  0.7571627435495237  0.03136731979322767  0.09237872095135528  1.0000
  H   H112      1.0  0.7637986761218549  0.0035472495106207984  0.06316190028142782  1.0000
  C   C177      1.0  0.8756610554095182  0.45131372835282313  0.11047740913774326  1.0000
  C   C178      1.0  0.8896732347078538  0.452100737483607  0.0850512270306924  1.0000
  C   C179      1.0  0.913996617085195  0.45605780957935044  0.08946173165568021  1.0000
  C   C180      1.0  0.9238492787866305  0.45810707018435864  0.11866664529390611  1.0000
  C   C181      1.0  0.9081113306915337  0.4542905995577449  0.14378978177059148  1.0000
  C   C182      1.0  0.8847948825409324  0.45157280607239175  0.13970637031058214  1.0000
  H   H113      1.0  0.8820952149548105  0.4506769045669757  0.06201905870928683  1.0000
  H   H114      1.0  0.9246160168184218  0.45612832924157853  0.06872715351025818  1.0000
  H   H115      1.0  0.9154144918097632  0.45649671005072034  0.16720647717459486  1.0000
  H   H116      1.0  0.8747349368009665  0.4511228013092404  0.16027495042581166  1.0000
  C   C183      1.0  0.963073876446428  0.4998736386964109  0.16458763061387874  1.0000
  C   C184      1.0  0.9661619247141647  0.4800009408002158  0.15415403571757463  1.0000
  C   C185      1.0  0.9839678534986217  0.47608220562272163  0.1697797968493932  1.0000
  C   C186      1.0  0.9962516679148498  0.4899155470743081  0.19604624184063923  1.0000
  C   C187      1.0  0.9917586032679295  0.508220263705116  0.20746228358792784  1.0000
  C   C188      1.0  0.974874026058312  0.5131395683202468  0.1916443756504153  1.0000
  C   C189      1.0  0.9528477521004408  0.46470362434714424  0.12292329239161284  1.0000
  C   C190      1.0  0.9725057819356147  0.4844271511237603  0.09915405546075903  1.0000
  C   C191      1.0  0.9951075436035647  0.4847886606596116  0.09065967243334219  1.0000
  C   C192      1.0  0.010438589842632198  0.5011671648594147  0.06788198773065647  1.0000
  C   C193      1.0  0.004113765414769138  0.5174991003763504  0.05395613047764457  1.0000
  C   C194      1.0  0.9837226501471226  0.5187969925283945  0.06454428331485923  1.0000
  C   C195      1.0  0.9686717406655477  0.5030930896348418  0.08757084832722876  1.0000
  C   C196      1.0  0.9423191551574787  0.42173223218656036  0.1456547497947513  1.0000
  C   C197      1.0  0.939350617934888  0.3983956009591006  0.14485464395864767  1.0000
  C   C198      1.0  0.9422492424655674  0.3877331815388697  0.11765431412806274  1.0000
  C   C199      1.0  0.9475703310065184  0.4024646169248139  0.09097252385452073  1.0000
  C   C200      1.0  0.9504060191501729  0.42648979160456474  0.09208688193906187  1.0000
  C   C201      1.0  0.9488680623594243  0.43708399787047425  0.11968201158547734  1.0000
  C   C202      1.0  0.9431529361158255  0.3619968626848284  0.11801712838814592  1.0000
  C   C203      1.0  0.025700473721495323  0.40070267201763476  0.13478129513911857  1.0000
  C   C204      1.0  0.009030925324208967  0.39390704876431365  0.15931515028218113  1.0000
  C   C205      1.0  0.9832443373667009  0.3809543007622945  0.15434384781117028  1.0000
  C   C206      1.0  0.9726677153661942  0.3735087890061838  0.12472779137242544  1.0000
  C   C207      1.0  0.9897679038807461  0.38075617117004823  0.10018202919766134  1.0000
  C   C208      1.0  0.0159088601088261  0.39387574629572025  0.10512788330680017  1.0000
  C   C209      1.0  0.9317004275147527  0.3451786040573021  0.08715456916009345  1.0000
  C   C210      1.0  0.9098131004833871  0.3426548208080979  0.07358242078998115  1.0000
  C   C211      1.0  0.8986956111987808  0.3279805846374248  0.04752703377242571  1.0000
  C   C212      1.0  0.9077667822580338  0.31306973831749296  0.036019938253301555  1.0000
  C   C213      1.0  0.9281139070542435  0.3136567097221642  0.05052503757791342  1.0000
  C   C214      1.0  0.9407938935030654  0.3306738840076006  0.07448618784325138  1.0000
  C   C215      1.0  0.9326289749265465  0.322403203595776  0.15160989994400564  1.0000
  C   C216      1.0  0.916703446871171  0.30256490598553964  0.17053180761627088  1.0000
  C   C217      1.0  0.8931852292526391  0.29899289301064597  0.17846539279766468  1.0000
  C   C218      1.0  0.8869350592380211  0.31681354718761157  0.17103377071741552  1.0000
  C   C219      1.0  0.9023745908241494  0.3365095984372442  0.15250806368823983  1.0000
  C   C220      1.0  0.9261058003067534  0.34059142661115865  0.1427678782851449  1.0000
  H   H117      1.0  0.9508018456142847  0.5056163929496225  0.1525227723744594  1.0000
  H   H118      1.0  0.989094089045332  0.4623195731034897  0.16222583585519065  1.0000
  H   H119      1.0  0.008372768638030253  0.48543431835448053  0.20876528641001546  1.0000
  H   H120      1.0  0.9717367438149821  0.5281816333712465  0.19993470484043663  1.0000
  H   H121      1.0  4.122626874263533e-05  0.47124160663516484  0.10073278778166145  1.0000
  H   H122      1.0  0.02637603073695181  0.499692249131517  0.05820110401485955  1.0000
  H   H123      1.0  0.9794434563850728  0.532320581323277  0.05345043183714254  1.0000
  H   H124      1.0  0.9520386830050847  0.5044515631701959  0.09318909952069161  1.0000
  H   H125      1.0  0.9395374705106343  0.4282582062019718  0.16835422164214237  1.0000
  H   H126      1.0  0.9376998971884465  0.38963047079253826  0.16723192553646685  1.0000
  H   H127      1.0  0.9514108139627614  0.3957394616177176  0.06924312488399292  1.0000
  H   H128      1.0  0.9535001581752457  0.43711962657254183  0.07087602252557701  1.0000
  H   H129      1.0  0.01711009975365273  0.399706170513214  0.18242856658460915  1.0000
  H   H130      1.0  0.9712557458119127  0.376791789943275  0.17465631000921114  1.0000
  H   H131      1.0  0.9827969325606642  0.3775620463478962  0.07688370369704418  1.0000
  H   H132      1.0  0.028409505246373395  0.397918995413561  0.08561272529034492  1.0000
  H   H133      1.0  0.9010983394887224  0.3519439620156144  0.08510796053468224  1.0000
  H   H134      1.0  0.8830693120150797  0.3284018877553973  0.03684082302708045  1.0000
  H   H135      1.0  0.9358561773210033  0.30181182228635306  0.043744333230683476  1.0000
  H   H136      1.0  0.9568371095376776  0.33053151962499905  0.08553708061835846  1.0000
  H   H137      1.0  0.9501702734087158  0.3236731949647262  0.14358969694376314  1.0000
  H   H138      1.0  0.9220610550869989  0.2881621862458749  0.17704845602517774  1.0000
  H   H139      1.0  0.8692355656331695  0.314602531708288  0.17855317797256254  1.0000
  H   H140      1.0  0.8961723066851307  0.3497042332115443  0.14498422048010595  1.0000
  C   C221      1.0  0.018183696440195258  0.5319798147000646  0.46611593158663744  1.0000
  C   C222      1.0  0.04356566047148099  0.5404030279446702  0.4608651640774544  1.0000
  C   C223      1.0  0.05340282756127956  0.5502745626408222  0.432341986371946  1.0000
  C   C224      1.0  0.03806804209273087  0.5499525165572108  0.4082244103960187  1.0000
  C   C225      1.0  0.013228685010445768  0.5435469892805274  0.4149413771029638  1.0000
  C   C226      1.0  0.003227198648791848  0.533362474826425  0.4429229016016557  1.0000
  H   H141      1.0  0.05563532078713325  0.5394007330615167  0.4787887488564664  1.0000
  H   H142      1.0  0.07375188375744043  0.5574540467773195  0.42936522844655317  1.0000
  H   H143      1.0  0.0013774994597110163  0.5439795683757124  0.3964341142993651  1.0000
  H   H144      1.0  0.9831338155566608  0.5261372059836524  0.4466397632622246  1.0000
  C   C227      1.0  0.008754914193107848  0.5215443760928943  0.34454513791359714  1.0000
  C   C228      1.0  0.02790398812230185  0.547296488784324  0.3463381968051279  1.0000
  C   C229      1.0  0.030530433119290438  0.5626096690978912  0.3212563847325832  1.0000
  C   C230      1.0  0.01518543992423187  0.5531708651274737  0.2958593865267617  1.0000
  C   C231      1.0  0.9961408584326366  0.5274620411554436  0.2947900883857187  1.0000
  C   C232      1.0  0.9927925108770762  0.5122128601287186  0.3194353092958724  1.0000
  C   C233      1.0  0.0490576609726317  0.557126287622306  0.3738177582026751  1.0000
  C   C234      1.0  0.06425284980127935  0.5425592268158366  0.36365709115066785  1.0000
  C   C235      1.0  0.07901164572575015  0.5496664637579307  0.3372421584699669  1.0000
  C   C236      1.0  0.0884128401457632  0.5351758375110874  0.324844837227743  1.0000
  C   C237      1.0  0.08223929627535868  0.5119028299730347  0.33690362521570655  1.0000
  C   C238      1.0  0.06663841127069123  0.5039193614117623  0.36227027216424956  1.0000
  C   C239      1.0  0.05796304564853465  0.518875563032397  0.37585129244033566  1.0000
  C   C240      1.0  0.05199791210659436  0.6011015791938035  0.38208497374292283  1.0000
  C   C241      1.0  0.06252658830846111  0.6262471572097345  0.3740769112455917  1.0000
  C   C242      1.0  0.08645933280996707  0.6391448609721343  0.3607643828608156  1.0000
  C   C243      1.0  0.1004238746823743  0.6270876754404185  0.36030444457744115  1.0000
  C   C244      1.0  0.09003016493873538  0.6022261301000073  0.3701405866477782  1.0000
  C   C245      1.0  0.06458207581617846  0.5879129581579067  0.3764980076915778  1.0000
  C   C246      1.0  0.09497342923357978  0.663842126070418  0.3413045575210912  1.0000
  C   C247      1.0  0.03849129825596462  0.6287508587286192  0.2650645339495613  1.0000
  C   C248      1.0  0.03502340547439145  0.6419008492306125  0.28829958875231326  1.0000
  C   C249      1.0  0.052523717775637614  0.6531972226947396  0.3118615032488338  1.0000
  C   C250      1.0  0.07492553901649815  0.6522456852410052  0.3120202636715215  1.0000
  C   C251      1.0  0.07765490223892142  0.6373099033634966  0.2892498165763406  1.0000
  C   C252      1.0  0.06020638632464517  0.6267302345974115  0.2650178397075944  1.0000
  C   C253      1.0  0.12502655226926168  0.6792399365403867  0.33271281699917327  1.0000
  C   C254      1.0  0.14349572486741866  0.6855129171204952  0.35593619824143347  1.0000
  C   C255      1.0  0.16880862322320803  0.696032388097968  0.34822464418059246  1.0000
  C   C256      1.0  0.17687300956229726  0.7001207188127971  0.317422787467097  1.0000
  C   C257      1.0  0.15885621818846837  0.6939451470754324  0.2946383320993261  1.0000
  C   C258      1.0  0.1335533353804698  0.6852902622215197  0.3023615597206588  1.0000
  C   C259      1.0  0.09528881067670185  0.705805026212703  0.3429225130052459  1.0000
  C   C260      1.0  0.09346128849042282  0.7247949959235472  0.3579417159339138  1.0000
  C   C261      1.0  0.08938040155642825  0.723927448483212  0.38938328376235637  1.0000
  C   C262      1.0  0.08847091291697819  0.7041803223383591  0.4056422188152467  1.0000
  C   C263      1.0  0.0904251663689421  0.685476807589974  0.3913607849096564  1.0000
  C   C264      1.0  0.09274921960942566  0.6852500778517898  0.3592818406783651  1.0000
  H   H145      1.0  0.006831197529874722  0.5078832539349688  0.36241268960224876  1.0000
  H   H146      1.0  0.045030261932428296  0.5821322739696096  0.32018708659154016  1.0000
  H   H147      1.0  0.018722772707119324  0.5658962421484969  0.2772587352392291  1.0000
  H   H148      1.0  0.9783045043049595  0.4922683778348631  0.3176095644349648  1.0000
  H   H149      1.0  0.08222569966200231  0.566526429019647  0.325241738284462  1.0000
  H   H150      1.0  0.10058501903041284  0.5422657208833781  0.3050698257547417  1.0000
  H   H151      1.0  0.06081849018427227  0.4861259840929208  0.3720573852805213  1.0000
  H   H152      1.0  0.04436545252122385  0.5110091647381001  0.3948675224813741  1.0000
  H   H153      1.0  0.031814718913339216  0.5904623112837787  0.3871116088906644  1.0000
  H   H154      1.0  0.05178328116362767  0.635671262923375  0.3753329863545025  1.0000
  H   H155      1.0  0.1189765345936729  0.6355969367395669  0.35016245522222067  1.0000
  H   H156      1.0  0.10200240958565777  0.593926914591474  0.36592643131026137  1.0000
  H   H157      1.0  0.0168320772948961  0.6418505593653848  0.28877820473247445  1.0000
  H   H158      1.0  0.04830416749692779  0.6625081581008255  0.3310971962271169  1.0000
  H   H159      1.0  0.09372878690481058  0.6343162127930123  0.29082107781852834  1.0000
  H   H160      1.0  0.06306464709497338  0.6167218175540994  0.24609499815048982  1.0000
  H   H161      1.0  0.1371176780899218  0.6802462433288587  0.37938137713303666  1.0000
  H   H162      1.0  0.18281273002243192  0.6994637792594421  0.3661832496410796  1.0000
  H   H163      1.0  0.16460121276139314  0.6967179065357364  0.2703316444434327  1.0000
  H   H164      1.0  0.11996650562320785  0.6818641151248528  0.28416714833823864  1.0000
  H   H165      1.0  0.09688662633535765  0.7058611848713323  0.31750917181473587  1.0000
  H   H166      1.0  0.0952522701719116  0.7405461949699041  0.3440408401003542  1.0000
  H   H167      1.0  0.08578725611050826  0.7029084236245018  0.4300422949550739  1.0000
  H   H168      1.0  0.08962292375225428  0.6706791765121696  0.4058780247371797  1.0000
  C   C265      1.0  0.9171180880005013  0.8003188568840848  0.46418045525710755  1.0000
  C   C266      1.0  0.9049306759611447  0.7926518265367096  0.4353887856602891  1.0000
  C   C267      1.0  0.8851121688495376  0.7677425126593183  0.43148047760765584  1.0000
  C   C268      1.0  0.8782761275138555  0.7503341839713237  0.45532489226807643  1.0000
  C   C269      1.0  0.8890519128308451  0.759429303997134  0.4847189175862684  1.0000
  C   C270      1.0  0.907699162565757  0.7836244013981429  0.4885945396695248  1.0000
  H   H169      1.0  0.9113518784271722  0.8056053784651312  0.41567914612604157  1.0000
  H   H170      1.0  0.8756650255996051  0.7620282981713195  0.40888513391985104  1.0000
  H   H171      1.0  0.8821575199489284  0.7471846643578769  0.004881491267595406  1.0000
  H   H172      1.0  0.9160368156203013  0.7896909552032957  0.011680172897982623  1.0000
  C   C271      1.0  0.8780561733912282  0.7025914152705671  0.48071488633760284  1.0000
  C   C272      1.0  0.8556276162067438  0.7027073858972249  0.4759684166416629  1.0000
  C   C273      1.0  0.8349291669460779  0.6865869555533599  0.49416049331198475  1.0000
  C   C274      1.0  0.8379027299732532  0.6733774054795543  0.017908385803251686  1.0000
  C   C275      1.0  0.8608912653426887  0.6752531629478309  0.023802623313860165  1.0000
  C   C276      1.0  0.8804402296448243  0.688605300822073  0.004073680881567232  1.0000
  C   C277      1.0  0.8553992291993543  0.7210190567167669  0.45036829848328513  1.0000
  C   C278      1.0  0.8565174760696451  0.7073194947600229  0.4192372473639228  1.0000
  C   C279      1.0  0.8366692794260164  0.6836577189525243  0.4096275723671255  1.0000
  C   C280      1.0  0.8372832100360572  0.6730935710223803  0.3814289196432872  1.0000
  C   C281      1.0  0.8581558606086069  0.6853715135502432  0.3623216358304132  1.0000
  C   C282      1.0  0.8791633935937806  0.7070050357247549  0.37302395608923705  1.0000
  C   C283      1.0  0.8784532240443427  0.7177682059104911  0.40099847645163395  1.0000
  C   C284      1.0  0.8227417638357959  0.7303509178617695  0.47817938899879775  1.0000
  C   C285      1.0  0.8007322211105959  0.7316372297275784  0.47960589809088794  1.0000
  C   C286      1.0  0.7857652159300462  0.7265572947117324  0.45321431253117045  1.0000
  C   C287      1.0  0.79341877981288  0.7207172479865296  0.4258047924965736  1.0000
  C   C288      1.0  0.8162257114400416  0.7213455658075567  0.4240771055437967  1.0000
  C   C289      1.0  0.8301984700172821  0.7240388066106856  0.4508399103271513  1.0000
  C   C290      1.0  0.7578680478121387  0.723775059693513  0.4563801821365293  1.0000
  C   C291      1.0  0.7253426577047961  0.6474456150218221  0.49503601034886496  1.0000
  C   C292      1.0  0.7333000759476762  0.6682462234889023  0.013994357705977423  1.0000
  C   C293      1.0  0.7421072143012403  0.6919535163896168  0.002259609581151345  1.0000
  C   C294      1.0  0.7432680497114638  0.6961153066508189  0.4708273806011022  1.0000
  C   C295      1.0  0.73489199196626  0.6750294186684432  0.4512554890806571  1.0000
  C   C296      1.0  0.7273700801289639  0.6513254787519602  0.4631298348128513  1.0000
  C   C297      1.0  0.7472520383551774  0.7283895285126822  0.4252187797598885  1.0000
  C   C298      1.0  0.7625240787507411  0.7476061278028651  0.4044982098870565  1.0000
  C   C299      1.0  0.7534089236591269  0.7517166313200049  0.3776350124834729  1.0000
  C   C300      1.0  0.7284257634448118  0.7353407878711997  0.3688705032662773  1.0000
  C   C301      1.0  0.712271877354289  0.7163442297581153  0.38880894458616294  1.0000
  C   C302      1.0  0.7216465092364825  0.7132065056225197  0.41707296924875487  1.0000
  C   C303      1.0  0.7352168164302716  0.7404941252190196  0.49043429280302253  1.0000
  C   C304      1.0  0.7338930526907722  0.7589638699556531  0.007358620803941896  1.0000
  C   C305      1.0  0.7543764777441995  0.7830451727846064  0.008199117159346847  1.0000
  C   C306      1.0  0.7767821151092981  0.7886374496234017  0.4936095012567748  1.0000
  C   C307      1.0  0.7784087202175036  0.769849475228496  0.47809300465115884  1.0000
  C   C308      1.0  0.7574498433974494  0.7452516051046371  0.47685794195113324  1.0000
  H   H173      1.0  0.8947761142616644  0.7139941714398546  0.46656886573371686  1.0000
  H   H174      1.0  0.8161899805434021  0.683742486164149  0.4891782176941117  1.0000
  H   H175      1.0  0.8214972552411162  0.6629202602658664  0.03282488474671333  1.0000
  H   H176      1.0  0.8983764483237157  0.6893637737663164  0.007981096572595197  1.0000
  H   H177      1.0  0.8199813004507389  0.6728157865452153  0.42479853158218595  1.0000
  H   H178      1.0  0.8199279708376862  0.6565503054356695  0.37415395674483715  1.0000
  H   H179      1.0  0.8962454962338907  0.7171811486878408  0.3579136993887336  1.0000
  H   H180      1.0  0.8956699587781984  0.7348593053535857  0.4083761666824113  1.0000
  H   H181      1.0  0.8341924020671369  0.7341980502625379  0.49994124046749255  1.0000
  H   H182      1.0  0.7949643789935118  0.7352662292915443  0.002341324504593567  1.0000
  H   H183      1.0  0.7834088065370693  0.7166857452973127  0.40326081247493245  1.0000
  H   H184      1.0  0.8222718850098284  0.7178223279635365  0.4016662041117613  1.0000
  H   H185      1.0  0.7329779054323591  0.66556282935861  0.039266355426053424  1.0000
  H   H186      1.0  0.7506514401377326  0.7077440793777984  0.018408971424258326  1.0000
  H   H187      1.0  0.7366065805942641  0.6772910604680246  0.42671999963912577  1.0000
  H   H188      1.0  0.7218539033773447  0.6353501273730371  0.446924598138223  1.0000
  H   H189      1.0  0.782492175254412  0.7589314814792162  0.41096769711157677  1.0000
  H   H190      1.0  0.7658237931858747  0.7664132540916736  0.3615558502621553  1.0000
  H   H191      1.0  0.6931401701752564  0.7028044524402353  0.38094563423892935  1.0000
  H   H192      1.0  0.7080825160326849  0.6986797311350996  0.4324773996736501  1.0000
  H   H193      1.0  0.7177130020865382  0.7224640864324592  0.4882886923846414  1.0000
  H   H194      1.0  0.7159482434366207  0.7537713074548066  0.01881038364633514  1.0000
  H   H195      1.0  0.7927941321169532  0.8078123619012759  0.4932779721388095  1.0000
  H   H196      1.0  0.7966803317543568  0.774476621507746  0.46820316420255986  1.0000
  C   C309      1.0  0.8685382184322962  0.6531993891936524  0.2901743625672861  1.0000
  C   C310      1.0  0.8529281907978482  0.627623237720076  0.28451035101669564  1.0000
  C   C311      1.0  0.8499391124461023  0.6183981758832245  0.25465171799093256  1.0000
  C   C312      1.0  0.8612464567622207  0.6347049873357982  0.2294435979938673  1.0000
  C   C313      1.0  0.8773962135076371  0.6604022374665547  0.23601838073402304  1.0000
  C   C314      1.0  0.8806667605199289  0.6694802192564684  0.265788294700049  1.0000
  H   H197      1.0  0.8438012248825857  0.6154879127424754  0.30383009363051927  1.0000
  H   H198      1.0  0.8381209956351324  0.598476506441864  0.25111462916193644  1.0000
  H   H199      1.0  0.888673732742923  0.6738830298180121  0.21796451901992334  1.0000
  H   H200      1.0  0.8938351486592294  0.689158751539522  0.2698857144326484  1.0000
  C   C315      1.0  0.8619114185731098  0.6634293394701066  0.16503799657764992  1.0000
  C   C316      1.0  0.8662272839277818  0.6430403146410223  0.16604332360719826  1.0000
  C   C317      1.0  0.8759701087910955  0.6375075691861666  0.13974862859956222  1.0000
  C   C318      1.0  0.8810383716868945  0.6512095652486463  0.11360078698291222  1.0000
  C   C319      1.0  0.8749069112176348  0.6699728399791401  0.1114014881862691  1.0000
  C   C320      1.0  0.8649357987180534  0.6754820600820213  0.13685988932027715  1.0000
  C   C321      1.0  0.8559740046634371  0.6235834270558362  0.1946575550845423  1.0000
  C   C322      1.0  0.8254625529962499  0.6092670514094944  0.18736041242115795  1.0000
  C   C323      1.0  0.8142429601483563  0.5939674134780603  0.1610395686380204  1.0000
  C   C324      1.0  0.7898939735179339  0.5865396684908952  0.15187232158385988  1.0000
  C   C325      1.0  0.775900842999781  0.5946107070463047  0.16767131835337581  1.0000
  C   C326      1.0  0.7854616814775044  0.6085263504030396  0.1947658857259056  1.0000
  C   C327      1.0  0.8100040715719932  0.6158303882665436  0.20409399444364226  1.0000
  C   C328      1.0  0.8957002665882894  0.618151954536963  0.19833192498492122  1.0000
  C   C329      1.0  0.9088035052190467  0.6060031329673129  0.19058371594413617  1.0000
  C   C330      1.0  0.8965970111086206  0.582665034943315  0.1755413993656946  1.0000
  C   C331      1.0  0.8700722711141632  0.570832326339467  0.17245864551103687  1.0000
  C   C332      1.0  0.8567221545141539  0.5813980053728285  0.1846206277737474  1.0000
  C   C333      1.0  0.8695192842279221  0.606437513889391  0.19549501631421945  1.0000
  C   C334      1.0  0.9140878408836882  0.5735942927083393  0.15773571754764917  1.0000
  C   C335      1.0  0.9385127509032793  0.6328128682289696  0.08686202973417054  1.0000
  C   C336      1.0  0.9546629775070126  0.6358832060176727  0.11107509543492015  1.0000
  C   C337      1.0  0.9483758241721458  0.6169108190610443  0.1324860396752334  1.0000
  C   C338      1.0  0.9248490418196588  0.5946709392819004  0.13047631950097607  1.0000
  C   C339      1.0  0.9086441472669927  0.5921777094040301  0.10568377825741666  1.0000
  C   C340      1.0  0.9154052646930575  0.6111320664042691  0.0843687906843455  1.0000
  C   C341      1.0  0.9002660059441472  0.5449424509961606  0.14465479260302916  1.0000
  C   C342      1.0  0.8805843873481423  0.5249485176404005  0.15996303288947247  1.0000
  C   C343      1.0  0.8649438911718172  0.5021599294745961  0.14538205542166432  1.0000
  C   C344      1.0  0.8698687112115708  0.49872427531519836  0.11461498591843426  1.0000
  C   C345      1.0  0.8912465245470148  0.5171987058912795  0.10039075245925358  1.0000
  C   C346      1.0  0.906771222347595  0.5391817513709778  0.11587222838339428  1.0000
  C   C347      1.0  0.9576362271070145  0.576415477563146  0.1670486506367466  1.0000
  C   C348      1.0  0.9780524398611646  0.5807789593045468  0.18613562245436496  1.0000
  C   C349      1.0  0.9756946706337398  0.5816024102079326  0.21807891991274234  1.0000
  C   C350      1.0  0.9531665902908479  0.5769557891163413  0.23039592705878317  1.0000
  C   C351      1.0  0.9336446798122551  0.5733444808541166  0.21153051941929796  1.0000
  C   C352      1.0  0.935469119154199  0.5741895521436995  0.17916744072563773  1.0000
  H   H201      1.0  0.8539664045971594  0.6681297429097581  0.18440186525013227  1.0000
  H   H202      1.0  0.8778594084613724  0.6206807847777617  0.13850656176324147  1.0000
  H   H203      1.0  0.8874331172758227  0.6458830785632071  0.09295072541545037  1.0000
  H   H204      1.0  0.8601302064115831  0.6903230685728217  0.1358370519499912  1.0000
  H   H205      1.0  0.8255454137086053  0.5899293781329811  0.14584012593536005  1.0000
  H   H206      1.0  0.7829157679769838  0.5756883638587316  0.13029397848609514  1.0000
  H   H207      1.0  0.7753092787982808  0.6159875689279198  0.2065293326334283  1.0000
  H   H208      1.0  0.8171879250982401  0.6277726816926855  0.22483697755261833  1.0000
  H   H209      1.0  0.9063973493525195  0.6379106325159516  0.20475541838110403  1.0000
  H   H210      1.0  0.9293308907760889  0.6160277807952943  0.1918969914994565  1.0000
  H   H211      1.0  0.8596634822189373  0.5521670905022594  0.1610650169998924  1.0000
  H   H212      1.0  0.8365976443070695  0.5708757600154706  0.1838634806402534  1.0000
  H   H213      1.0  0.9728628473796429  0.6528487963245755  0.11348054930984733  1.0000
  H   H214      1.0  0.9612766464490885  0.6198133240286442  0.15071897380727634  1.0000
  H   H215      1.0  0.8896316013522497  0.5763560814433064  0.10356689479784519  1.0000
  H   H216      1.0  0.9023502898065244  0.6081312767782019  0.06522812048846514  1.0000
  H   H217      1.0  0.8764159614976602  0.528601228735882  0.18355343087359288  1.0000
  H   H218      1.0  0.8492690410798075  0.48783163307675503  0.15841255058496007  1.0000
  H   H219      1.0  0.8959702963273191  0.5146148107410563  0.07659770146499663  1.0000
  H   H220      1.0  0.9228720582958797  0.5527661119624524  0.10306563211033004  1.0000
  H   H221      1.0  0.960521629526648  0.5768898633786896  0.14244989049735002  1.0000
  H   H222      1.0  0.9958067592950918  0.5848251433705247  0.1762481167178643  1.0000
  H   H223      1.0  0.9518141661949676  0.5781418417934159  0.2554782060737475  1.0000
  H   H224      1.0  0.9158799943926615  0.568920265817337  0.22235027569666865  1.0000
  C   C353      1.0  0.8056155829400812  0.14014752614185286  0.3208688225242576  1.0000
  C   C354      1.0  0.7944630925814651  0.15396340932242647  0.3131175783577447  1.0000
  C   C355      1.0  0.7889151747878588  0.15544980208360126  0.28236942002251125  1.0000
  C   C356      1.0  0.7946588376874134  0.1435858921062682  0.2580043645641592  1.0000
  C   C357      1.0  0.8038639040616207  0.12797842288637096  0.26756267589479293  1.0000
  C   C358      1.0  0.810528291975326  0.12730959167248765  0.2984065574260586  1.0000
  H   H225      1.0  0.7894149891269252  0.16411339259906868  0.33060457197436566  1.0000
  H   H226      1.0  0.780395377452992  0.16696716187373511  0.276901524288182  1.0000
  H   H227      1.0  0.809330864448936  0.11867047525741453  0.25026479395813805  1.0000
  H   H228      1.0  0.8176562103845392  0.11457479311322029  0.30461455689556394  1.0000
  C   C359      1.0  0.8229505542494465  0.13870328604845328  0.1963049279411361  1.0000
  C   C360      1.0  0.7974049963838082  0.1313467104693602  0.19907739855792347  1.0000
  C   C361      1.0  0.7803543499926835  0.11312459411900733  0.17865287017916198  1.0000
  C   C362      1.0  0.7882664886774803  0.10476777422543886  0.15420283120043013  1.0000
  C   C363      1.0  0.8134214626476567  0.11434218309132403  0.14937581393709715  1.0000
  C   C364      1.0  0.8307277257147317  0.1301424302455905  0.17096653100898312  1.0000
  C   C365      1.0  0.7904984729224406  0.1473602516988593  0.22244716624875008  1.0000
  C   C366      1.0  0.8095173731719905  0.17710215036297333  0.21299952027157806  1.0000
  C   C367      1.0  0.8112970765172118  0.1833657618100194  0.18147413627880485  1.0000
  C   C368      1.0  0.8292850209740363  0.20655255260428784  0.17074683460052864  1.0000
  C   C369      1.0  0.8456808492825635  0.22532725388366776  0.19140786931485274  1.0000
  C   C370      1.0  0.8435110654076302  0.21990846923366164  0.22264048041049322  1.0000
  C   C371      1.0  0.8261183012837814  0.19616139536532345  0.2332351704415833  1.0000
  C   C372      1.0  0.7416387332384414  0.1140708542253621  0.22868785168763234  1.0000
  C   C373      1.0  0.7173708120327213  0.10238615083738425  0.2169867415931355  1.0000
  C   C374      1.0  0.7099921941102443  0.11446955477234459  0.19533438812185314  1.0000
  C   C375      1.0  0.7277051106261101  0.13888107439011219  0.18836970846127346  1.0000
  C   C376      1.0  0.7518887396721714  0.15115131554887376  0.20039417618139135  1.0000
  C   C377      1.0  0.7602601487333107  0.13817629517110608  0.21882626125542334  1.0000
  C   C378      1.0  0.684028883085914  0.09965206331686684  0.17585962062469931  1.0000
  C   C379      1.0  0.7127787609733717  0.06917241744295065  0.10321972310882097  1.0000
  C   C380      1.0  0.702096489411  0.055856415204687086  0.12990081296873346  1.0000
  C   C381      1.0  0.693404730318975  0.06555443685419438  0.15254121660003636  1.0000
  C   C382      1.0  0.6932226821534921  0.08793245545886841  0.14871415652842554  1.0000
  C   C383      1.0  0.7040244565729167  0.10155914241790144  0.12101116318306644  1.0000
  C   C384      1.0  0.7137723079757419  0.0922231486056664  0.0990139727348582  1.0000
  C   C385      1.0  0.671550644803767  0.11566132644070752  0.16541014968612647  1.0000
  C   C386      1.0  0.6747223692995684  0.13670265873419674  0.18205501264887364  1.0000
  C   C387      1.0  0.6671185923361399  0.15279547216112738  0.17006369784055222  1.0000
  C   C388      1.0  0.6553549770505748  0.1472485026009396  0.14119918522626537  1.0000
  C   C389      1.0  0.6495046226353226  0.12506159574366432  0.12598970326158213  1.0000
  C   C390      1.0  0.6568964380427826  0.10922714857555663  0.1387580102562335  1.0000
  C   C391      1.0  0.6415329632411961  0.05678130691927661  0.18003968916558025  1.0000
  C   C392      1.0  0.623161190201993  0.03726730455166456  0.19717180654325248  1.0000
  C   C393      1.0  0.6235605035471032  0.04026275359879223  0.22909082299580702  1.0000
  C   C394      1.0  0.6396925998139722  0.06319867703884308  0.24317660802755572  1.0000
  C   C395      1.0  0.6580686667553955  0.08197271815663136  0.22556237260157486  1.0000
  C   C396      1.0  0.6604300318863794  0.07855170956155469  0.1940741105311653  1.0000
  H   H229      1.0  0.8366863979798433  0.15353466674171204  0.21223980495477585  1.0000
  H   H230      1.0  0.7604471767323651  0.10765952861732395  0.17773812997902952  1.0000
  H   H231      1.0  0.7739198680799954  0.09275051490984794  0.13731048875525817  1.0000
  H   H232      1.0  0.8506468993721076  0.13742780953611897  0.16779435768095868  1.0000
  H   H233      1.0  0.7998977245128821  0.16875565845346382  0.16438591148858153  1.0000
  H   H234      1.0  0.8307153530478776  0.2092716903690626  0.14582261559462245  1.0000
  H   H235      1.0  0.8565605243509591  0.2333916323014097  0.24006210208836049  1.0000
  H   H236      1.0  0.8278970310250117  0.19316264707506903  0.25696541768039466  1.0000
  H   H237      1.0  0.747227012004875  0.10400769299989138  0.24518679514423272  1.0000
  H   H238      1.0  0.7046682271337619  0.08349146244068975  0.22518321535680322  1.0000
  H   H239      1.0  0.7230539064086288  0.14860432476156601  0.1717320831060312  1.0000
  H   H240      1.0  0.7657121603158853  0.16995815407378567  0.19182251418351923  1.0000
  H   H241      1.0  0.6997537557474013  0.03724707346736099  0.13409535672462417  1.0000
  H   H242      1.0  0.6871133831361663  0.056356594155669716  0.17510784332903148  1.0000
  H   H243      1.0  0.7046636314204732  0.11981044151570217  0.11796366348109374  1.0000
  H   H244      1.0  0.7224610576072424  0.10308345797974214  0.07816289245572863  1.0000
  H   H245      1.0  0.6843786131787369  0.1411558639487772  0.20408605642250788  1.0000
  H   H246      1.0  0.6719803713436616  0.16989489513408768  0.1835144411815505  1.0000
  H   H247      1.0  0.6409031346177908  0.12110034662307674  0.10296990891429779  1.0000
  H   H248      1.0  0.6514325928060584  0.09186668087163566  0.12504251056328267  1.0000
  H   H249      1.0  0.6409463360191745  0.05412017899945227  0.15497468702014372  1.0000
  H   H250      1.0  0.6095723728055397  0.019655902235489194  0.18540579145242161  1.0000
  H   H251      1.0  0.6385641983457234  0.0653417860468932  0.26752998992541605  1.0000
  H   H252      1.0  0.672152779053187  0.09921563782015926  0.23697094327014875  1.0000
  C   C397      1.0  0.888376279911344  0.07606176746471846  0.4594363202732659  1.0000
  C   C398      1.0  0.8841293095066185  0.08665534319984114  0.4337498177672493  1.0000
  C   C399      1.0  0.8783047055535252  0.10507756006354337  0.4381157293911587  1.0000
  C   C400      1.0  0.8758861068231456  0.11322658489980855  0.46787163508459456  1.0000
  C   C401      1.0  0.8838055968301524  0.1046470359420284  0.49336202177434996  1.0000
  C   C402      1.0  0.8899062776410969  0.08629334311156663  0.48884201915194964  1.0000
  H   H253      1.0  0.8837617876707053  0.07959174437667785  0.4110003830809536  1.0000
  H   H254      1.0  0.8735245821564215  0.11224070827021024  0.4176146224555714  1.0000
  H   H255      1.0  0.8846234291311108  0.11237003143330469  0.01575557112448666  1.0000
  H   H256      1.0  0.892981062365013  0.07818472089892325  0.009443518707765941  1.0000
  C   C403      1.0  0.835975808701083  0.10748087837945723  0.017608048438920297  1.0000
  C   C404      1.0  0.8525862541868798  0.13109657450769197  0.004988888024119342  1.0000
  C   C405      1.0  0.8552822096430952  0.15227822387793327  0.020383647569919457  1.0000
  C   C406      1.0  0.8432746032253247  0.1501594013272912  0.04856131123199354  1.0000
  C   C407      1.0  0.8284179069934673  0.1270711860807795  0.061825511076333835  1.0000
  C   C408      1.0  0.8247441540890407  0.10582372896821687  0.045473187539509616  1.0000
  C   C409      1.0  0.8664743052841147  0.13309780698593063  0.47316676212364617  1.0000
  C   C410      1.0  0.8446140754423596  0.13075217726508495  0.45137222468557453  1.0000
  C   C411      1.0  0.8421014447393494  0.15157526370001226  0.4455891428179683  1.0000
  C   C412      1.0  0.8245995147405649  0.14992519078081515  0.4243362585867132  1.0000
  C   C413      1.0  0.8098474000851581  0.1278817346434918  0.407822839915103  1.0000
  C   C414      1.0  0.8101529586722954  0.10670107954338579  0.41556241052112414  1.0000
  C   C415      1.0  0.8276459718717366  0.10780615532166483  0.43713048088565615  1.0000
  C   C416      1.0  0.9096324489125767  0.1687936677756754  0.4936235095293649  1.0000
  C   C417      1.0  0.9304573635950251  0.192017303466306  0.490021048761615  1.0000
  C   C418      1.0  0.9360015017390166  0.20473361634736387  0.4617873753563016  1.0000
  C   C419      1.0  0.9196412165807999  0.19262676083155653  0.43701141056864046  1.0000
  C   C420      1.0  0.8987978645271679  0.16916738844496804  0.43999283791822996  1.0000
  C   C421      1.0  0.8925979476375567  0.15765937192488283  0.468835871181212  1.0000
  C   C422      1.0  0.9568246279959957  0.23385590219076444  0.4605406390957842  1.0000
  C   C423      1.0  0.9067456348822741  0.2598314263095905  0.498841591069171  1.0000
  C   C424      1.0  0.9218518803955137  0.2554299305691666  0.0189944004829189  1.0000
  C   C425      1.0  0.9384838937198474  0.2484000198569305  0.0068753353995839595  1.0000
  C   C426      1.0  0.9405313228869957  0.2459225071102069  0.475088230180586  1.0000
  C   C427      1.0  0.9242247188862169  0.2496662481152539  0.4560019587765971  1.0000
  C   C428      1.0  0.9084974580985591  0.25797510611063723  0.4672786182116143  1.0000
  C   C429      1.0  0.9688911613844075  0.24425280316445114  0.42739006201135143  1.0000
  C   C430      1.0  0.9743918964769828  0.2302414928434905  0.40631695061166906  1.0000
  C   C431      1.0  0.9861507012475352  0.2403496386958917  0.37867395936723747  1.0000
  C   C432      1.0  0.9946548078044825  0.26583947077326264  0.3724402780646503  1.0000
  C   C433      1.0  0.9900642754090342  0.2799385978079962  0.3933709720263335  1.0000
  C   C434      1.0  0.9777923666606727  0.2694206315884411  0.420280863671884  1.0000
  C   C435      1.0  0.9962164276354136  0.2640631578172644  0.49423520409913185  1.0000
  C   C436      1.0  0.018780190503140667  0.27073144847776426  0.00873610094196664  1.0000
  C   C437      1.0  0.027180825314981606  0.2537830130369987  0.010718271513463497  1.0000
  C   C438      1.0  0.0127361431738834  0.22966928209336543  0.49729134223586846  1.0000
  C   C439      1.0  0.9909362678997317  0.22379643270944757  0.4814479859364839  1.0000
  C   C440      1.0  0.9817715531582986  0.24042006985081055  0.47964325348446146  1.0000
  H   H257      1.0  0.8324403361626447  0.09015808777594876  0.005780355425459072  1.0000
  H   H258      1.0  0.8674508718075795  0.17088596222896565  0.011475927112611214  1.0000
  H   H259      1.0  0.845109102028804  0.16699145645823096  0.05997011537177727  1.0000
  H   H260      1.0  0.8123856651855904  0.08757708332679742  0.05513982951150662  1.0000
  H   H261      1.0  0.8530973618788119  0.16879061886413269  0.4578323730617013  1.0000
  H   H262      1.0  0.8227424064621228  0.16649155595214435  0.42074780609155343  1.0000
  H   H263      1.0  0.79788770036761  0.08882235086644164  0.40385382934791264  1.0000
  H   H264      1.0  0.8285635447362658  0.09108577625236293  0.4419726737776284  1.0000
  H   H265      1.0  0.9049630648548598  0.15946021738653937  0.016090444051760633  1.0000
  H   H266      1.0  0.9426464976386058  0.20070197330414602  0.010085564534811353  1.0000
  H   H267      1.0  0.9224818618643446  0.20077454170707973  0.41412889729273894  1.0000
  H   H268      1.0  0.8861358351267001  0.15967879822180706  0.4192582597728079  1.0000
  H   H269      1.0  0.9202325075943301  0.25623195031828666  0.043835387002519016  1.0000
  H   H270      1.0  0.9502248819370704  0.24482678448822043  0.022692491058217027  1.0000
  H   H271      1.0  0.9242555738384286  0.24738082817891452  0.43072403088779126  1.0000
  H   H272      1.0  0.8960034607195344  0.26092720698926175  0.4514399313364265  1.0000
  H   H273      1.0  0.9689876101827876  0.2113817304266313  0.4125506319142562  1.0000
  H   H274      1.0  0.9891666189564972  0.22806050247119472  0.36237299949657686  1.0000
  H   H275      1.0  0.9945632983968445  0.29888084752606164  0.38874590735950754  1.0000
  H   H276      1.0  0.9757006293168745  0.28150437083796753  0.43711880732516445  1.0000
  H   H277      1.0  0.9896686474172459  0.2778769452227209  0.49530216752807654  1.0000
  H   H278      1.0  0.028821236492630162  0.28938187863788783  0.020174504060149506  1.0000
  H   H279      1.0  0.018656153771883295  0.21570406267099515  0.4979847517290775  1.0000
  H   H280      1.0  0.9800187530655403  0.20537497440865998  0.4697487436116658  1.0000
  C   C441      1.0  0.24428402211456368  0.4665618346318245  0.3099120186467139  1.0000
  C   C442      1.0  0.23476126807053055  0.45476228722153605  0.2815849567574666  1.0000
  C   C443      1.0  0.21481758063127948  0.43028936502847076  0.28050398505593177  1.0000
  C   C444      1.0  0.20439606976897626  0.416454288848658  0.30758664539676  1.0000
  C   C445      1.0  0.2136264926513814  0.4295299858325422  0.3355588310470586  1.0000
  C   C446      1.0  0.2342271711219331  0.45331709752996163  0.336980670714952  1.0000
  H   H281      1.0  0.24307086838767386  0.4645660853928863  0.2601709773914255  1.0000
  H   H282      1.0  0.20750820095786615  0.42154562426774334  0.2577895710511113  1.0000
  H   H283      1.0  0.20427110896255532  0.42049539503621325  0.35699849224618146  1.0000
  H   H284      1.0  0.24378661276561753  0.46046523922009197  0.3588592577885642  1.0000
  C   C447      1.0  0.2034668394345234  0.3732310717180915  0.3505780339757265  1.0000
  C   C448      1.0  0.18164186497883922  0.37301768464590707  0.3396469119312646  1.0000
  C   C449      1.0  0.15953624860133858  0.35896313370885863  0.3553782020499285  1.0000
  C   C450      1.0  0.15871452241435927  0.34726414994168153  0.38247253595124847  1.0000
  C   C451      1.0  0.18018818022293975  0.34692391608448353  0.39195847120683336  1.0000
  C   C452      1.0  0.20273091161882165  0.3599985507421116  0.37563416421518925  1.0000
  C   C453      1.0  0.18373917806166631  0.3871435871943992  0.3072644551271881  1.0000
  C   C454      1.0  0.18970721657472958  0.3702818341852788  0.28441929724486015  1.0000
  C   C455      1.0  0.17157253596711036  0.34507060856091526  0.2786035294078771  1.0000
  C   C456      1.0  0.17569210267061594  0.3312300813045162  0.25656851662367564  1.0000
  C   C457      1.0  0.19829912524590257  0.34076536944996594  0.2417407600870722  1.0000
  C   C458      1.0  0.21790441868523408  0.36417838393325674  0.2505846495156116  1.0000
  C   C459      1.0  0.2137581371679393  0.37897601271008446  0.2716857774604741  1.0000
  C   C460      1.0  0.14784846010243813  0.3974824481385741  0.3172430146355243  1.0000
  C   C461      1.0  0.1269951148549355  0.39880356214025775  0.30863726584101625  1.0000
  C   C462      1.0  0.11591936793255604  0.3908721119741893  0.27941367450600363  1.0000
  C   C463      1.0  0.12675153237857162  0.3814700066928905  0.259031637887432  1.0000
  C   C464      1.0  0.14872458280121836  0.38132844214524175  0.26635329502784905  1.0000
  C   C465      1.0  0.1585996798143464  0.3876019210719486  0.29667420104908493  1.0000
  C   C466      1.0  0.08839587726880406  0.38756087257460203  0.271604062537032  1.0000
  C   C467      1.0  0.048582828155111946  0.31637371193110264  0.32328758425814536  1.0000
  C   C468      1.0  0.05365551916842394  0.3387836830696959  0.3366468068848884  1.0000
  C   C469      1.0  0.0648849723610746  0.36042647572004566  0.3200890286834096  1.0000
  C   C470      1.0  0.07114340187767033  0.3607593634594312  0.288533059962148  1.0000
  C   C471      1.0  0.06497062635621845  0.3371985708023332  0.27495904382235703  1.0000
  C   C472      1.0  0.054155040721675485  0.3156051914064023  0.2924740539841582  1.0000
  C   C473      1.0  0.08081001630369217  0.3862492774660472  0.23545104569412464  1.0000
  C   C474      1.0  0.09925738644607118  0.40346870621836506  0.21570335035267402  1.0000
  C   C475      1.0  0.09362573198118006  0.40625019795469725  0.1856061097504598  1.0000
  C   C476      1.0  0.06959799680053058  0.39017324824940547  0.17406539437711946  1.0000
  C   C477      1.0  0.05100675862558071  0.37197532866057953  0.19279165317554314  1.0000
  C   C478      1.0  0.05675858972247327  0.370106283223749  0.22318937122481466  1.0000
  C   C479      1.0  0.06109816219800811  0.40712000727680336  0.2886754774001472  1.0000
  C   C480      1.0  0.05749446229167025  0.42716211170158447  0.2951519687609625  1.0000
  C   C481      1.0  0.07726799894916792  0.451127112323783  0.2955628780902716  1.0000
  C   C482      1.0  0.1014327078990064  0.4553062131444412  0.2913907475705251  1.0000
  C   C483      1.0  0.10541166937052106  0.4355344979314898  0.2848021900289891  1.0000
  C   C484      1.0  0.0850898343203349  0.41076219292248295  0.2828293583058857  1.0000
  H   H285      1.0  0.22127488116226196  0.38307178767905187  0.3389628412864489  1.0000
  H   H286      1.0  0.14138993502288907  0.3558928535528892  0.34698024263217336  1.0000
  H   H287      1.0  0.1413525287034134  0.33737658260148845  0.3966255606914295  1.0000
  H   H288      1.0  0.21999725612255766  0.3602379622870781  0.3828904494168526  1.0000
  H   H289      1.0  0.15307775912519084  0.33857737895656126  0.28909339086575137  1.0000
  H   H290      1.0  0.16003111785890242  0.31325449238451364  0.24921884293807847  1.0000
  H   H291      1.0  0.23612578144204213  0.372746402407346  0.23890875431177697  1.0000
  H   H292      1.0  0.2291996802752779  0.3975001278474402  0.27863621537725397  1.0000
  H   H293      1.0  0.15630157992276214  0.40504486299761605  0.3395395151747407  1.0000
  H   H294      1.0  0.11829538107176331  0.4044676846368028  0.3260168627011133  1.0000
  H   H295      1.0  0.11851051853032321  0.3751168602203244  0.23614678989943214  1.0000
  H   H296      1.0  0.1553764678002186  0.37319605157234503  0.24839935899155857  1.0000
  H   H297      1.0  0.04869070519564611  0.3387962868066363  0.3605776058929478  1.0000
  H   H298      1.0  0.07016702734130184  0.37824666851946714  0.3318489735227848  1.0000
  H   H299      1.0  0.07030430211830571  0.33677232225243214  0.25067336857534883  1.0000
  H   H300      1.0  0.04983966285794  0.2978725496289675  0.28035456348163756  1.0000
  H   H301      1.0  0.11832242071654256  0.41557379881030476  0.22477884322136948  1.0000
  H   H302      1.0  0.1076988218010939  0.4213090291029561  0.1717692050283949  1.0000
  H   H303      1.0  0.03175578188354367  0.35906350067565024  0.18392558398206943  1.0000
  H   H304      1.0  0.04136773723481544  0.356640228584737  0.23776941480778352  1.0000
  H   H305      1.0  0.0449024695930744  0.3882318777284911  0.2884443409024108  1.0000
  H   H306      1.0  0.03842456619986157  0.4240668445682199  0.297199511271213  1.0000
  H   H307      1.0  0.1175879024617343  0.47397771094010294  0.2916032063714747  1.0000
  H   H308      1.0  0.12413773626252765  0.43893208992668925  0.2818464445124814  1.0000
  C   C485      1.0  0.18747417896814875  0.3267618642329799  0.15345152084718197  1.0000
  C   C486      1.0  0.1719411088253042  0.3003651643534241  0.15080162261555782  1.0000
  C   C487      1.0  0.16988622445401338  0.289238822674709  0.12296438332454376  1.0000
  C   C488      1.0  0.17909317259441776  0.30353882222558154  0.09566669599945772  1.0000
  C   C489      1.0  0.1954998543812451  0.32932904549472153  0.09994972534387579  1.0000
  C   C490      1.0  0.19941044338075767  0.3411053250936654  0.1282282252214775  1.0000
  H   H309      1.0  0.16169474310344775  0.2886049457608654  0.17041950796434036  1.0000
  H   H310      1.0  0.1564590316488619  0.2689259632283992  0.12094415694584386  1.0000
  H   H311      1.0  0.20481689550403334  0.3417285362354503  0.08084594359914932  1.0000
  H   H312      1.0  0.21079989093712972  0.3614661463774573  0.13029818096787218  1.0000
  C   C491      1.0  0.17046796330664382  0.32550584815387873  0.02973255857245238  1.0000
  C   C492      1.0  0.17911409875075068  0.3085420815765856  0.032843328972290274  1.0000
  C   C493      1.0  0.19443478226460353  0.30824147831747967  0.009156349119669227  1.0000
  C   C494      1.0  0.20052913953700877  0.32370855557397304  0.48389476421555183  1.0000
  C   C495      1.0  0.19038562355741978  0.3385576768730808  0.4802572827663268  1.0000
  C   C496      1.0  0.17671350428177612  0.34098019686107833  0.0042417801526482  1.0000
  C   C497      1.0  0.17064415650538353  0.28951990620045304  0.062211672457400474  1.0000
  C   C498      1.0  0.1397702993799743  0.2743010704365366  0.0579015604526416  1.0000
  C   C499      1.0  0.12930522119823606  0.2625145459108051  0.029547649374263275  1.0000
  C   C500      1.0  0.1036859811208903  0.2521309207337596  0.022697253870897657  1.0000
  C   C501      1.0  0.08793047967281077  0.2545670846235976  0.04366962244353636  1.0000
  C   C502      1.0  0.09816195786571509  0.2678240174954513  0.07115712186221801  1.0000
  C   C503      1.0  0.12324385692354725  0.27726505542005825  0.07830227476799997  1.0000
  C   C504      1.0  0.20857282335715915  0.2823590194588003  0.06724461132780767  1.0000
  C   C505      1.0  0.22158706744761994  0.2709615657790757  0.05716098977504585  1.0000
  C   C506      1.0  0.2105202584751241  0.24934101498502306  0.03823628044826261  1.0000
  C   C507      1.0  0.18484152314763608  0.23825688777623483  0.03330046560114667  1.0000
  C   C508      1.0  0.17121200710058398  0.24784734379837126  0.04610215897880437  1.0000
  C   C509      1.0  0.18272402934638862  0.2715245623805078  0.06145149019817862  1.0000
  C   C510      1.0  0.2278506106099364  0.24228948884797336  0.01766940467286486  1.0000
  C   C511      1.0  0.2546693975691572  0.3041078564284657  0.44893945467909663  1.0000
  C   C512      1.0  0.2693449003558958  0.306408843699222  0.4748267424255711  1.0000
  C   C513      1.0  0.2608158973669188  0.28784935024159775  0.4967076642112816  1.0000
  C   C514      1.0  0.23816569607929206  0.265433698581278  0.49325462501782597  1.0000
  C   C515      1.0  0.2227163751540088  0.2640655027769119  0.4687564909698682  1.0000
  C   C516      1.0  0.23106599927918312  0.28272182133651247  0.44630356472006255  1.0000
  C   C517      1.0  0.21333801272421155  0.21420807551356613  0.0031421307543266774  1.0000
  C   C518      1.0  0.19530087216611844  0.1930517552465095  0.02012921064544157  1.0000
  C   C519      1.0  0.1813122978747379  0.16900078969012938  0.00611655396762112  1.0000
  C   C520      1.0  0.18619917178927342  0.16537332308482755  0.47561120569061577  1.0000
  C   C521      1.0  0.20495176955449473  0.18568975833113394  0.4599522916470007  1.0000
  C   C522      1.0  0.21843085024196096  0.20920210624872576  0.47331384898584206  1.0000
  C   C523      1.0  0.27080435437803896  0.24430272558451305  0.019260674397735406  1.0000
  C   C524      1.0  0.29267166235313746  0.2475550297227623  0.033729118742403225  1.0000
  C   C525      1.0  0.2936788442889257  0.24768464152373565  0.06539832100043466  1.0000
  C   C526      1.0  0.27295878207235097  0.24358513201291446  0.08307886225000863  1.0000
  C   C527      1.0  0.2517163777057818  0.2413960689004907  0.06841990539811568  1.0000
  C   C528      1.0  0.2504833792889753  0.2419929199443559  0.035916743978554606  1.0000
  H   H313      1.0  0.1591508121781725  0.3270742128313894  0.048026428690262184  1.0000
  H   H314      1.0  0.2032583641597379  0.2966190185723428  0.009261411164094846  1.0000
  H   H315      1.0  0.213090266146706  0.3229911761607321  0.4662116547826696  1.0000
  H   H316      1.0  0.16966598013253262  0.3538598546462958  0.002642502365280297  1.0000
  H   H317      1.0  0.1420167647952661  0.26339150456951943  0.01123424288719821  1.0000
  H   H318      1.0  0.09722610727906965  0.24376112503919375  0.4992058061565132  1.0000
  H   H319      1.0  0.08650992280521404  0.27127559753571256  0.08771256535159844  1.0000
  H   H320      1.0  0.13063698765609663  0.28968242445181974  0.09794397418018566  1.0000
  H   H321      1.0  0.2194405734090973  0.3011958350615904  0.07699436905050584  1.0000
  H   H322      1.0  0.24126828042723553  0.28127614001126866  0.06260787310049001  1.0000
  H   H323      1.0  0.1751325517931117  0.2229928477688797  0.017407893570728986  1.0000
  H   H324      1.0  0.15095255983928021  0.23710101137877032  0.04286414676960655  1.0000
  H   H325      1.0  0.2879208436631004  0.32368589988588126  0.4781933972713878  1.0000
  H   H326      1.0  0.27342306671310884  0.29172577688173496  0.016265547459136664  1.0000
  H   H327      1.0  0.20354480281325113  0.24755501446113445  0.46724593224223754  1.0000
  H   H328      1.0  0.21882764424419057  0.28016942154317653  0.4271939461950902  1.0000
  H   H329      1.0  0.1918269639889258  0.19541356489456693  0.0441183541088387  1.0000
  H   H330      1.0  0.1667589118864518  0.15347503336108778  0.01865969615649984  1.0000
  H   H331      1.0  0.2107627628432114  0.1823417410206128  0.437424654610048  1.0000
  H   H332      1.0  0.23262281905270943  0.22306415121411824  0.4584604106161568  1.0000
  H   H333      1.0  0.2719061286093284  0.24562058157686728  0.49394103037474013  1.0000
  H   H334      1.0  0.3090817219168163  0.25094683093468245  0.020478273451265468  1.0000
  H   H335      1.0  0.27381359302788955  0.24202924287666977  0.10813125695011408  1.0000
  H   H336      1.0  0.2358253415060232  0.2386027168947424  0.08323225283487004  1.0000
  C   C529      1.0  0.2168813286935099  0.7525309339446298  0.28237642415880626  1.0000
  C   C530      1.0  0.21016370522942923  0.7603936959951814  0.25556692513348467  1.0000
  C   C531      1.0  0.2099601668098723  0.7828226420789608  0.2563537231106277  1.0000
  C   C532      1.0  0.21408089439058287  0.7965969920874185  0.28336867680060385  1.0000
  C   C533      1.0  0.22160385850157835  0.7888379282746347  0.3095337952867816  1.0000
  C   C534      1.0  0.22409007328795272  0.7676129425075054  0.30895945611058817  1.0000
  H   H337      1.0  0.20648710016532643  0.7504490373979356  0.23332622421341884  1.0000
  H   H338      1.0  0.20744204180278292  0.7899388931751585  0.23465257415648988  1.0000
  H   H339      1.0  0.22594921321065398  0.7996059295031342  0.3309454399407244  1.0000
  H   H340      1.0  0.23039866154450744  0.7619096636969513  0.32993684431423836  1.0000
  C   C535      1.0  0.17431002921016353  0.7952227389395191  0.32626200747143974  1.0000
  C   C536      1.0  0.19337866987658753  0.8182317261498067  0.31571611292320517  1.0000
  C   C537      1.0  0.19513167834326073  0.8396526426810379  0.3290893438225383  1.0000
  C   C538      1.0  0.17970891600525724  0.838073646324905  0.3529664444523357  1.0000
  C   C539      1.0  0.16255348074201595  0.8152111786700262  0.36487814557810344  1.0000
  C   C540      1.0  0.15938885802428138  0.79371392845736  0.35070410842903726  1.0000
  C   C541      1.0  0.209621086412894  0.8201168718599902  0.28598121963865447  1.0000
  C   C542      1.0  0.1924178615454627  0.8229656993331472  0.25997252686306593  1.0000
  C   C543      1.0  0.19660776240228933  0.8462571347631536  0.250143388929024  1.0000
  C   C544      1.0  0.18080396294136283  0.8482204142027947  0.22881836209392994  1.0000
  C   C545      1.0  0.16015145278103426  0.827232805382903  0.21662976411329823  1.0000
  C   C546      1.0  0.15476118962538485  0.8034070783424805  0.22657190211290018  1.0000
  C   C547      1.0  0.17028151083299342  0.8018176059020996  0.24882661130555614  1.0000
  C   C548      1.0  0.2512133273781271  0.8530206985034819  0.31572545177159855  1.0000
  C   C549      1.0  0.27476300027547484  0.8743223127285844  0.3178920645988648  1.0000
  C   C550      1.0  0.287123905766311  0.8869149398078381  0.29092613986295396  1.0000
  C   C551      1.0  0.275414499007305  0.8764215110881458  0.262393623309052  1.0000
  C   C552      1.0  0.2521957417089033  0.8546135054378757  0.26142471778823795  1.0000
  C   C553      1.0  0.2387195293127391  0.8428470489775958  0.2880357662852  1.0000
  C   C554      1.0  0.31228286953326095  0.9140850690694484  0.29421574920952526  1.0000
  C   C555      1.0  0.27633510613687323  0.9608151011166848  0.3055110863413293  1.0000
  C   C556      1.0  0.28235354853916794  0.9513615089165731  0.33101081187947806  1.0000
  C   C557      1.0  0.29404212694725307  0.9372539299169204  0.32789864065238117  1.0000
  C   C558      1.0  0.2991964135889108  0.9308915986411413  0.29875909895290903  1.0000
  C   C559      1.0  0.29249815629328085  0.94075906256633  0.2730655923105974  1.0000
  C   C560      1.0  0.28196321759166376  0.9557719055921472  0.27671007789611746  1.0000
  C   C561      1.0  0.33134116153640447  0.9221035161816052  0.2655011251119523  1.0000
  C   C562      1.0  0.33734500130408607  0.9055858639521296  0.2514625012645902  1.0000
  C   C563      1.0  0.35707609504998317  0.9135770185829121  0.23105735099624497  1.0000
  C   C564      1.0  0.37115786456275535  0.9388738722812461  0.22336844364275793  1.0000
  C   C565      1.0  0.36681956437586427  0.9560532565189346  0.2388410476609249  1.0000
  C   C566      1.0  0.3469426025291282  0.947555249294282  0.25906432385680883  1.0000
  C   C567      1.0  0.3464374783802546  0.938378236242032  0.3376437289508827  1.0000
  C   C568      1.0  0.36693221386415775  0.9419673449096314  0.3554248962918954  1.0000
  C   C569      1.0  0.3731700088804179  0.9234731522515722  0.35776194310234105  1.0000
  C   C570      1.0  0.3572062970509668  0.900526351262555  0.3434991868935376  1.0000
  C   C571      1.0  0.33642265949053585  0.8965533671419291  0.3256829988710496  1.0000
  C   C572      1.0  0.330972925976315  0.9155696232971672  0.3216252692441221  1.0000
  H   H341      1.0  0.17124796874426682  0.77772045189067  0.316299790947792  1.0000
  H   H342      1.0  0.20681448576577005  0.8585359801286888  0.32064935958701296  1.0000
  H   H343      1.0  0.18021893291688523  0.855059383538982  0.3619644248793661  1.0000
  H   H344      1.0  0.1453234804294175  0.775014773188915  0.35895498098459655  1.0000
  H   H345      1.0  0.21295212239769148  0.8634872406220908  0.26003789880181966  1.0000
  H   H346      1.0  0.18593081848104887  0.8670893223152687  0.2221688685666271  1.0000
  H   H347      1.0  0.1378192593560971  0.7874858202597794  0.21636477429013581  1.0000
  H   H348      1.0  0.1649616053893964  0.7825756261647454  0.2580487240940278  1.0000
  H   H349      1.0  0.24244279859526804  0.8436601690580614  0.33722815019737684  1.0000
  H   H350      1.0  0.2837763849380481  0.8818735180122905  0.34058780090689855  1.0000
  H   H351      1.0  0.2840011162625184  0.8854498803770778  0.24109171012373162  1.0000
  H   H352      1.0  0.24430123524801997  0.8482465467590078  0.23829705974200996  1.0000
  H   H353      1.0  0.2777195860968402  0.9547038188407476  0.3543182427572788  1.0000
  H   H354      1.0  0.2987519153508351  0.9303372712627609  0.3482900161193462  1.0000
  H   H355      1.0  0.2946450478826712  0.9362911158123877  0.24940328519384788  1.0000
  H   H356      1.0  0.2774995901736673  0.9634346213300172  0.2568790333327558  1.0000
  H   H357      1.0  0.3277749262795576  0.8858015213585201  0.25751174031140794  1.0000
  H   H358      1.0  0.3601381353468851  0.898904327937539  0.2202044418070777  1.0000
  H   H359      1.0  0.37801132339955296  0.9761330857124444  0.2353880084674693  1.0000
  H   H360      1.0  0.34426982561548913  0.961307777632794  0.27169978573306425  1.0000
  H   H361      1.0  0.34519646803962667  0.9553001081308412  0.33280620548310713  1.0000
  H   H362      1.0  0.3792594503950402  0.9605795113916833  0.36549450957206714  1.0000
  H   H363      1.0  0.3620763827990196  0.886284990429213  0.3463942298954882  1.0000
  H   H364      1.0  0.3256688562492004  0.8786466259884602  0.3130498717068926  1.0000
  C   C573      1.0  0.14007408885984887  0.8240950029185011  0.1281254978891502  1.0000
  C   C574      1.0  0.12881469196439588  0.8381882263873339  0.1223690317394652  1.0000
  C   C575      1.0  0.12028099066791452  0.839280513301789  0.09271188436778945  1.0000
  C   C576      1.0  0.123519569590862  0.8265338618032798  0.06841687027238783  1.0000
  C   C577      1.0  0.13310092164767193  0.8108434039714114  0.07469724581694197  1.0000
  C   C578      1.0  0.14130621462642226  0.8096154444011168  0.10388628341289909  1.0000
  H   H365      1.0  0.12850724161288776  0.8506652706976996  0.13999750890924603  1.0000
  H   H366      1.0  0.1114461790709902  0.8502739307274616  0.08930950842686797  1.0000
  H   H367      1.0  0.13442883353788446  0.7986256502333837  0.056986119838879634  1.0000
  H   H368      1.0  0.15049988949231363  0.7987107369650734  0.10704538235317278  1.0000
  C   C579      1.0  0.14756772850299407  0.8223449232296478  0.002072832613283615  1.0000
  C   C580      1.0  0.12308120799804481  0.8183196708773294  0.005107958341134977  1.0000
  C   C581      1.0  0.10715000047190756  0.807552251506305  0.4791833152010871  1.0000
  C   C582      1.0  0.11472797320979819  0.8005387740497769  0.4527193535663208  1.0000
  C   C583      1.0  0.13926950320770318  0.8045230125465594  0.45090294755380667  1.0000
  C   C584      1.0  0.15587140898392582  0.815561466945498  0.4762088919877926  1.0000
  C   C585      1.0  0.11553295386732973  0.8302354076586209  0.0336691166414757  1.0000
  C   C586      1.0  0.12968531804504285  0.8597879301272356  0.023394282167859232  1.0000
  C   C587      1.0  0.12318569810841119  0.868015788657918  0.4964438417441684  1.0000
  C   C588      1.0  0.1366819466946865  0.8925693267778855  0.48732679100012233  1.0000
  C   C589      1.0  0.15813166245420393  0.9094815752912231  0.0032378539503589154  1.0000
  C   C590      1.0  0.16607785039832532  0.9021759933630137  0.02918927106716697  1.0000
  C   C591      1.0  0.15234522984273696  0.8775982068783844  0.0389212849779177  1.0000
  C   C592      1.0  0.07247291176477984  0.7899242955492106  0.04080960012306096  1.0000
  C   C593      1.0  0.04721977788395811  0.775154257692459  0.0335238975489585  1.0000
  C   C594      1.0  0.03442067495719646  0.7856976145137508  0.018875376860145163  1.0000
  C   C595      1.0  0.04639439478232224  0.81160463731185  0.016971302408338048  1.0000
  C   C596      1.0  0.07095502146311143  0.8261198295300919  0.027261732758771473  1.0000
  C   C597      1.0  0.08533181571776069  0.8155046986281379  0.035281235345384486  1.0000
  C   C598      1.0  0.008685639669128949  0.7667873168533426  0.00022374063139252165  1.0000
  C   C599      1.0  0.042643007343793275  0.7431714738017222  0.4251277259880529  1.0000
  C   C600      1.0  0.03036189189981561  0.7274401202437993  0.4495908393545355  1.0000
  C   C601      1.0  0.01979109112261407  0.7339498593800287  0.47294729918640155  1.0000
  C   C602      1.0  0.02001436400446256  0.7572964582178706  0.4724616790699453  1.0000
  C   C603      1.0  0.03342102306511912  0.7735101704865324  0.4481993509439205  1.0000
  C   C604      1.0  0.0437004837762417  0.7662140605372414  0.4242382006785826  1.0000
  C   C605      1.0  0.9937098063721438  0.78091187520363  0.48884902328824476  1.0000
  C   C606      1.0  0.9882378019825122  0.7950706088458582  0.009473869965044401  1.0000
  C   C607      1.0  0.9777493528580836  0.8089530869926738  0.4989559919619901  1.0000
  C   C608      1.0  0.9720391934201089  0.8083897404136351  0.46777357717646395  1.0000
  C   C609      1.0  0.9731219759446148  0.7909846974635477  0.4481386484293636  1.0000
  C   C610      1.0  0.9838086227732907  0.777473056366373  0.4590977870190056  1.0000
  C   C611      1.0  0.967654436609335  0.7229885468055909  0.005093950068544961  1.0000
  C   C612      1.0  0.9512049886094329  0.7007782323871451  0.019770668908498382  1.0000
  C   C613      1.0  0.9553340192768862  0.698937771583902  0.05075033729540393  1.0000
  C   C614      1.0  0.9737790064879484  0.719308842695682  0.06680078255791186  1.0000
  C   C615      1.0  0.9886285147234225  0.7419731053784526  0.051957149979039635  1.0000
  C   C616      1.0  0.9877026465781813  0.7433937697639754  0.020005470904229168  1.0000
  H   H369      1.0  0.1607433634761976  0.8306318394260456  0.02182110646175088  1.0000
  H   H370      1.0  0.08882985272989712  0.805737613926549  0.4778968888348977  1.0000
  H   H371      1.0  0.10192563417595712  0.7929280688026674  0.4324353748558798  1.0000
  H   H372      1.0  0.17529139015177267  0.8191681329385985  0.475370730344486  1.0000
  H   H373      1.0  0.10832985104984841  0.8550205444617901  0.48111412210642024  1.0000
  H   H374      1.0  0.13094707397451685  0.8980917979134142  0.4668770477306986  1.0000
  H   H375      1.0  0.1839708234303611  0.9148905991983847  0.04017432496110067  1.0000
  H   H376      1.0  0.16004266686292756  0.8707673728401135  0.056684708506983  1.0000
  H   H377      1.0  0.0822858814579993  0.7794010195505727  0.04585374561154022  1.0000
  H   H378      1.0  0.038021432271440926  0.7551068474438801  0.035848336914073034  1.0000
  H   H379      1.0  0.038581088663729064  0.8216944577620452  0.005388123792936739  1.0000
  H   H380      1.0  0.07982985021235714  0.8461811636926979  0.025191310069957118  1.0000
  H   H381      1.0  0.02966960944261311  0.709471675870865  0.4521006548602588  1.0000
  H   H382      1.0  0.010542271350731117  0.7205378650930835  0.4910459873727895  1.0000
  H   H383      1.0  0.03652045681351471  0.7926043990659019  0.44758298694995685  1.0000
  H   H384      1.0  0.054463013865080394  0.7787942658516224  0.4057402767233772  1.0000
  H   H385      1.0  0.9924696053760156  0.7958779223393909  0.03428081121124268  1.0000
  H   H386      1.0  0.9752573257778067  0.8217997125451655  0.015191784846977766  1.0000
  H   H387      1.0  0.9680048949443211  0.7896058137725013  0.4242825602084512  1.0000
  H   H388      1.0  0.9855787621395371  0.7648870798342905  0.4427314552095913  1.0000
  H   H389      1.0  0.964875319377694  0.7233587053270386  0.4807055474892095  1.0000
  H   H390      1.0  0.9358780575857439  0.6847103665224852  0.0072302116385327695  1.0000
  H   H391      1.0  0.9761893837054748  0.7177133698129042  0.09150110267358655  1.0000
  H   H392      1.0  0.002306336309907015  0.7580099438014398  0.06575950096204898  1.0000
  C   C617      1.0  0.6038258410039183  0.14474898753895332  0.14208053904339146  1.0000
  C   C618      1.0  0.5903974494479644  0.1306807016100271  0.11666299537110449  1.0000
  C   C619      1.0  0.5706155735341722  0.1062324662196662  0.12028716896136894  1.0000
  C   C620      1.0  0.5639261187040965  0.09620146236505792  0.15010727923750933  1.0000
  C   C621      1.0  0.5760358765349735  0.11210973561313074  0.17567821349465776  1.0000
  C   C622      1.0  0.5962637677558644  0.13561383400282495  0.17194570926302996  1.0000
  H   H393      1.0  0.5959022065026021  0.13793545182458672  0.09331353967553352  1.0000
  H   H394      1.0  0.5603990368302446  0.0955309945621511  0.09989275836867612  1.0000
  H   H395      1.0  0.5701522474105215  0.10493047371606921  0.1990008200010977  1.0000
  H   H396      1.0  0.606320416583801  0.14654986205983683  0.19242370254884367  1.0000
  C   C623      1.0  0.5607703305378746  0.05637742665166505  0.1987594107701286  1.0000
  C   C624      1.0  0.5390216166562598  0.054627936768726564  0.18642792840907807  1.0000
  C   C625      1.0  0.516261765714437  0.03986832746365353  0.20163577607529243  1.0000
  C   C626      1.0  0.5157007045817301  0.02838799452765543  0.22893229604432927  1.0000
  C   C627      1.0  0.5381100339607202  0.03241648255423808  0.24246919026175653  1.0000
  C   C628      1.0  0.560548775361381  0.04583688050397315  0.22681354481507915  1.0000
  C   C629      1.0  0.540290377770686  0.06834153402746175  0.15380593014371108  1.0000
  C   C630      1.0  0.5400316059912469  0.04782812761746076  0.13031429048135076  1.0000
  C   C631      1.0  0.5179961931938863  0.024316417860170515  0.12553093233425688  1.0000
  C   C632      1.0  0.5174663972351599  0.006686373553579372  0.10456124868053131  1.0000
  C   C633      1.0  0.5395318237101767  0.011619796470397157  0.08899805783294845  1.0000
  C   C634      1.0  0.5621913674974633  0.033324898191703235  0.09632905382175884  1.0000
  C   C635      1.0  0.5619229681275376  0.05088008054776225  0.11611200331589455  1.0000
  C   C636      1.0  0.5116551249925045  0.08565333896334859  0.17155371110171744  1.0000
  C   C637      1.0  0.4885240962758368  0.0846478807736396  0.17003638170900157  1.0000
  C   C638      1.0  0.47204495003999064  0.07315601589261225  0.1449576047621848  1.0000
  C   C639      1.0  0.48090338869813953  0.06552297028624589  0.12026102018586746  1.0000
  C   C640      1.0  0.5037759332256951  0.06682156129025954  0.12137654562645778  1.0000
  C   C641      1.0  0.5182197981132465  0.07387377517647735  0.14869804701494696  1.0000
  C   C642      1.0  0.443151226397342  0.06542537771029196  0.146279518752269  1.0000
  C   C643      1.0  0.4229540895906214  0.9961107518628539  0.19559097298146155  1.0000
  C   C644      1.0  0.4283546498807721  0.017458540394051578  0.212797567675071  1.0000
  C   C645      1.0  0.432338809635411  0.03897837151774937  0.19778210028576043  1.0000
  C   C646      1.0  0.432566547760473  0.0399526742346037  0.1650695151909776  1.0000
  C   C647      1.0  0.4268946043537406  0.01859498206780217  0.14817437109128767  1.0000
  C   C648      1.0  0.4220401382603638  0.9969531665973098  0.16353280768784548  1.0000
  C   C649      1.0  0.4272229207998305  0.06191827863777493  0.11482114099671833  1.0000
  C   C650      1.0  0.43724288272113343  0.07661548914652204  0.08817250363497285  1.0000
  C   C651      1.0  0.42176219492139505  0.07366689099290669  0.06335358014470213  1.0000
  C   C652      1.0  0.39615872083319387  0.056470941251879535  0.06381888826590273  1.0000
  C   C653      1.0  0.38568557925086205  0.04180245382656296  0.08933005389333344  1.0000
  C   C654      1.0  0.4009786187198434  0.045296527166380086  0.11481507074526263  1.0000
  C   C655      1.0  0.42025378950105946  0.08338788567675616  0.1808117784565037  1.0000
  C   C656      1.0  0.41800096745083976  0.10333763773757748  0.19141370609509864  1.0000
  C   C657      1.0  0.43550754294458177  0.12783603967706575  0.18455572277741336  1.0000
  C   C658      1.0  0.4565988616312777  0.13286263445823757  0.16641571018688464  1.0000
  C   C659      1.0  0.45862720587526806  0.11301641521251182  0.15460043267077864  1.0000
  C   C660      1.0  0.4406448475618201  0.08775239896785372  0.1619265257641825  1.0000
  H   H397      1.0  0.5793381245999855  0.06704331348141676  0.18716523048973607  1.0000
  H   H398      1.0  0.498571208882899  0.03735500824869012  0.1922371590521857  1.0000
  H   H399      1.0  0.4982646178803586  0.01663839573639137  0.2415890038006796  1.0000
  H   H400      1.0  0.5781298096019574  0.04807790003949856  0.2355420994659602  1.0000
  H   H401      1.0  0.5001436818734891  0.020935304254024366  0.13524450201943067  1.0000
  H   H402      1.0  0.4995998859674774  0.98987832120386  0.09834134217932435  1.0000
  H   H403      1.0  0.579356566566683  0.03804115147770567  0.083473895537049  1.0000
  H   H404      1.0  0.5803475599662634  0.06779558809561312  0.12084539862408378  1.0000
  H   H405      1.0  0.5243186660971242  0.09533267751215713  0.1907198296594698  1.0000
  H   H406      1.0  0.48221950805389385  0.09052834118098156  0.19009085822017505  1.0000
  H   H407      1.0  0.46871968273209796  0.05604733080074913  0.09972092355823775  1.0000
  H   H408      1.0  0.507886876599348  0.058848445761296844  0.10048717606891533  1.0000
  H   H409      1.0  0.42782067625456727  0.016360467233046717  0.23802856785070003  1.0000
  H   H410      1.0  0.43619056637260284  0.055365395592096425  0.21138249867226275  1.0000
  H   H411      1.0  0.4277719792415776  0.018559173176065025  0.12273464765406637  1.0000
  H   H412      1.0  0.419919786603341  0.9810493912058609  0.1506986618120207  1.0000
  H   H413      1.0  0.4569874814618262  0.09070663240779675  0.08605491976177189  1.0000
  H   H414      1.0  0.4305350187698738  0.08560199946194993  0.043033413396736726  1.0000
  H   H415      1.0  0.3662839708000238  0.027537130528469986  0.08924973979715028  1.0000
  H   H416      1.0  0.39208831071054706  0.03438245606689737  0.1357583721522769  1.0000
  H   H417      1.0  0.4053806357634855  0.06426953105380805  0.18729340618393533  1.0000
  H   H418      1.0  0.4016245803687149  0.09993915604477673  0.2049657759411651  1.0000
  H   H419      1.0  0.4712011544115766  0.1521768670136037  0.16158495738419432  1.0000
  H   H420      1.0  0.4745565024764241  0.1180889017183878  0.1391595807371492  1.0000
  C   C661      1.0  0.5299582139720775  0.990977955111316  0.001225332121583489  1.0000
  C   C662      1.0  0.5141521368991142  0.9661677587295118  0.4912607808858374  1.0000
  C   C663      1.0  0.5141955646276751  0.9590559396260379  0.46102625921224044  1.0000
  C   C664      1.0  0.5295028144930536  0.9769394552066291  0.4393297796822993  1.0000
  C   C665      1.0  0.5466700390213872  0.000952974942690865  0.449560488097257  1.0000
  C   C666      1.0  0.5463714964931273  0.008138408734419622  0.4799420966330499  1.0000
  H   H421      1.0  0.499998136955857  0.952340899790876  0.006406058267816151  1.0000
  H   H422      1.0  0.5013792936877401  0.9397787565642263  0.45452642073044164  1.0000
  H   H423      1.0  0.5599580366218626  0.01615151358847203  0.4349872151793734  1.0000
  H   H424      1.0  0.5590688612765903  0.027940996103711015  0.48618044735983384  1.0000
  C   C667      1.0  0.535521001578644  0.013203831618703128  0.37910821581753  1.0000
  C   C668      1.0  0.540371445278322  0.993287777723658  0.3792389596950375  1.0000
  C   C669      1.0  0.5539100176432017  0.9913651386892016  0.35397504007882175  1.0000
  C   C670      1.0  0.5601943315676653  0.0065542523256704194  0.328879219733687  1.0000
  C   C671      1.0  0.5539461282884338  0.025400949580586845  0.3283118846937887  1.0000
  C   C672      1.0  0.5431121093103892  0.029639035325899295  0.3541711558950829  1.0000
  C   C673      1.0  0.524565698193728  0.9700417661262355  0.4031487462942118  1.0000
  C   C674      1.0  0.4951862997878339  0.9607977990919122  0.39272659148718964  1.0000
  C   C675      1.0  0.48665546615595956  0.9520533815702609  0.36213485886254543  1.0000
  C   C676      1.0  0.4629609620957512  0.9469652564218781  0.35187379919030926  1.0000
  C   C677      1.0  0.4479540608351661  0.9523406102660219  0.37037872728180965  1.0000
  C   C678      1.0  0.45628931446094945  0.9615128959688924  0.40008560402118015  1.0000
  C   C679      1.0  0.47972545700544045  0.966470253122918  0.410942015278495  1.0000
  C   C680      1.0  0.5583894714876394  0.9555555091238641  0.4066181284723558  1.0000
  C   C681      1.0  0.5695361587166046  0.9430688904841916  0.3926005170338788  1.0000
  C   C682      1.0  0.5564378875533919  0.9248563724981871  0.3698627559080749  1.0000
  C   C683      1.0  0.5306309447738761  0.916470610565308  0.3657279807819019  1.0000
  C   C684      1.0  0.5190863133549166  0.927235980124498  0.38135187414404176  1.0000
  C   C685      1.0  0.5336003686040731  0.9494086476994633  0.39890423969941646  1.0000
  C   C686      1.0  0.5711603834307613  0.9170925228379403  0.34450077838372856  1.0000
  C   C687      1.0  0.5986961959200848  0.9785197445872111  0.277298425344901  1.0000
  C   C688      1.0  0.6109763891574873  0.9820969977705715  0.30512819355720033  1.0000
  C   C689      1.0  0.6012430914543794  0.9630263207175045  0.32639275134894724  1.0000
  C   C690      1.0  0.5799705481145083  0.9399834547822882  0.32039721068039145  1.0000
  C   C691      1.0  0.5659400810260258  0.9381763034422989  0.29319548002254747  1.0000
  C   C692      1.0  0.5761720778564906  0.9573386177723378  0.2717908395048998  1.0000
  C   C693      1.0  0.5538935639236037  0.8889186561033946  0.3292761207904061  1.0000
  C   C694      1.0  0.5363883242274646  0.8690022751099777  0.3474121643703676  1.0000
  C   C695      1.0  0.5210745968531412  0.8456021109440351  0.3349051116595213  1.0000
  C   C696      1.0  0.522175997478631  0.8409055995562971  0.3037413745707821  1.0000
  C   C697      1.0  0.5408160407372438  0.8593951495128823  0.28608161225888334  1.0000
  C   C698      1.0  0.557220766574752  0.8831366877928934  0.29835986318409163  1.0000
  C   C699      1.0  0.6160147523911232  0.9210447597732024  0.3408072638441432  1.0000
  C   C700      1.0  0.6375535887289503  0.9238649326162859  0.35478051575275155  1.0000
  C   C701      1.0  0.638009107245083  0.9203768783124084  0.3865652862596512  1.0000
  C   C702      1.0  0.615849714376612  0.9112502585366005  0.4031534157184085  1.0000
  C   C703      1.0  0.5945528734644164  0.907417250509192  0.38871322139013065  1.0000
  C   C704      1.0  0.5945387588806585  0.9149295331315029  0.35836196411161625  1.0000
  H   H425      1.0  0.5231624752785325  0.014551460197212568  0.39687070546175596  1.0000
  H   H426      1.0  0.5593746258192459  0.9772848291799997  0.35302714696689275  1.0000
  H   H427      1.0  0.5688238199970096  0.003851668725032952  0.3081749928455435  1.0000
  H   H428      1.0  0.5368381376761173  0.04347751696670648  0.353734564732692  1.0000
  H   H429      1.0  0.49889029396354606  0.9493985421575561  0.34703394101043533  1.0000
  H   H430      1.0  0.45725783254840824  0.941551658212485  0.32800837212100353  1.0000
  H   H431      1.0  0.4442682424055531  0.9656175305301977  0.41415691383791914  1.0000
  H   H432      1.0  0.48450367373804215  0.9745260054733096  0.43396928070449403  1.0000
  H   H433      1.0  0.5708461589722588  0.9730515067544845  0.4199493345539187  1.0000
  H   H434      1.0  0.5893905311827734  0.9501731036367848  0.3965485151921841  1.0000
  H   H435      1.0  0.5207640077053984  0.9047640152437831  0.34539263840529727  1.0000
  H   H436      1.0  0.49901204174761676  0.9201454705812093  0.37687389633941165  1.0000
  H   H437      1.0  0.6298328011027686  0.9989630641324316  0.3093586918794056  1.0000
  H   H438      1.0  0.6122573086824061  0.9652717217474409  0.3478464208206602  1.0000
  H   H439      1.0  0.5485261972528825  0.9217314706858074  0.286462170330914  1.0000
  H   H440      1.0  0.5665815164142689  0.9542372011338566  0.24979318211427187  1.0000
  H   H441      1.0  0.5340168539414007  0.8726291141961822  0.3718355876311783  1.0000
  H   H442      1.0  0.5071818769054419  0.8315091623831469  0.35002237249631984  1.0000
  H   H443      1.0  0.541785761503323  0.8554920429817806  0.261371019409976  1.0000
  H   H444      1.0  0.5721297965862635  0.8974815026077764  0.28451035101669564  1.0000
  H   H445      1.0  0.6171039487086001  0.924686804040162  0.3157091087869101  1.0000
  H   H446      1.0  0.65441617911456  0.9290225883828915  0.34077924729896303  1.0000
  H   H447      1.0  0.6158369908609181  0.9075485262201992  0.4274064049960398  1.0000
  H   H448      1.0  0.5781513923597752  0.9021399277265678  0.4021378159556274  1.0000
  C   C705      1.0  0.34978950589544544  0.20873795209505794  0.3145604304345233  1.0000
  C   C706      1.0  0.37486981995127205  0.22052707575202538  0.3062231735313252  1.0000
  C   C707      1.0  0.3817520263134656  0.22401549076716076  0.27561743263409094  1.0000
  C   C708      1.0  0.3637524153768649  0.21513622280916136  0.251878080018096  1.0000
  C   C709      1.0  0.338023062843567  0.2032962972932285  0.2606425892352916  1.0000
  C   C710      1.0  0.331436171070902  0.20060873826859177  0.29121097473895236  1.0000
  H   H449      1.0  0.38943380722836063  0.22593869392050295  0.32436622124758185  1.0000
  H   H450      1.0  0.4018106881507288  0.2329749345909914  0.2717815006565064  1.0000
  H   H451      1.0  0.3229773700758514  0.1974822419342197  0.24307855011942517  1.0000
  H   H452      1.0  0.31112529178183596  0.19029216580328864  0.2954111218038791  1.0000
  C   C711      1.0  0.33214943239450867  0.1794112074418064  0.192763636630363  1.0000
  C   C712      1.0  0.3501554112467197  0.20532393838769117  0.19148935076708506  1.0000
  C   C713      1.0  0.3499595456161607  0.2173707264564369  0.16366845446075942  1.0000
  C   C714      1.0  0.3356885763892564  0.20436439730276407  0.13789346636621547  1.0000
  C   C715      1.0  0.3196160683967238  0.17883046084052617  0.1400073147000591  1.0000
  C   C716      1.0  0.3175051019132629  0.16628596179794775  0.16751582652762587  1.0000
  C   C717      1.0  0.37238231774175207  0.21807583393940494  0.2166914005126946  1.0000
  C   C718      1.0  0.3879930841422193  0.20310477743742433  0.2096200245092204  1.0000
  C   C719      1.0  0.39847251531246614  0.20529997794546043  0.18032382362794913  1.0000
  C   C720      1.0  0.4060247010006153  0.18863560887267433  0.17021381982847597  1.0000
  C   C721      1.0  0.40357583245351514  0.16949837414264454  0.18899167576427317  1.0000
  C   C722      1.0  0.393618358880462  0.16708513350627716  0.21862314130286709  1.0000
  C   C723      1.0  0.38562228185721054  0.18357000515184008  0.22847796106999088  1.0000
  C   C724      1.0  0.37491480490493645  0.2616593638801664  0.2165134954508005  1.0000
  C   C725      1.0  0.38548286397503595  0.28657557467935757  0.20797101735415774  1.0000
  C   C726      1.0  0.4092636792186351  0.2989977668927849  0.19304940539120072  1.0000
  C   C727      1.0  0.4225463205853546  0.28595968958036255  0.19170811329070017  1.0000
  C   C728      1.0  0.4127575073860476  0.26151013748136587  0.2021143920554536  1.0000
  C   C729      1.0  0.38766460223453675  0.24847241960635746  0.2128090077643529  1.0000
  C   C730      1.0  0.4181467534810864  0.32493091591235773  0.17509990530789712  1.0000
  C   C731      1.0  0.3591154046192092  0.2917077565633643  0.10189150539607121  1.0000
  C   C732      1.0  0.35708369102657694  0.30495606197799996  0.1260373313883884  1.0000
  C   C733      1.0  0.37529851341315035  0.31502775526065985  0.14940336353985764  1.0000
  C   C734      1.0  0.3972514428711999  0.3137930473812066  0.1472491246867126  1.0000
  C   C735      1.0  0.3986128402429265  0.29890349316986586  0.12302111682853359  1.0000
  C   C736      1.0  0.3803352975600167  0.2892807416627678  0.09993198153192834  1.0000
  C   C737      1.0  0.4475244597268963  0.3394582131998448  0.16508118875146935  1.0000
  C   C738      1.0  0.46692604124329584  0.34353570346313045  0.1859530479682742  1.0000
  C   C739      1.0  0.49091602745616625  0.35071389256361063  0.175417893095692  1.0000
  C   C740      1.0  0.4961870283039822  0.3553135791015605  0.14410683567354707  1.0000
  C   C741      1.0  0.4783277798251581  0.3547417111958288  0.1240694025606915  1.0000
  C   C742      1.0  0.45473209038172413  0.3488359701695409  0.13559260759329428  1.0000
  C   C743      1.0  0.4158104014578001  0.3659443005438229  0.18146036147742456  1.0000
  C   C744      1.0  0.41082855610911995  0.38222338435821485  0.19899381586480266  1.0000
  C   C745      1.0  0.4072887760042954  0.37930203128910533  0.23067889416510284  1.0000
  C   C746      1.0  0.4106380133514362  0.36160239541558026  0.24529886132495343  1.0000
  C   C747      1.0  0.4158199982613802  0.34540397008594675  0.2282381861374906  1.0000
  C   C748      1.0  0.4168887879942591  0.3464020330204376  0.19560451431163195  1.0000
  H   H453      1.0  0.33170257097918837  0.16789790816774286  0.21216252598432056  1.0000
  H   H454      1.0  0.3635524125140309  0.23744897352139077  0.15910432577970035  1.0000
  H   H455      1.0  0.33603561879733934  0.21337512722640192  0.11653622050416423  1.0000
  H   H456      1.0  0.3062704201337884  0.1459316399052669  0.16809787025374384  1.0000
  H   H457      1.0  0.3989322259479683  0.21891550196259205  0.16340556587848554  1.0000
  H   H458      1.0  0.4118514660558075  0.18975271600767593  0.1463418555652949  1.0000
  H   H459      1.0  0.3923759846692928  0.15228240167635693  0.23405722257141134  1.0000
  H   H460      1.0  0.3756869119038491  0.17936394376943549  0.25089750093679014  1.0000
  H   H461      1.0  0.3555444630436015  0.2520816718352935  0.22289683179889175  1.0000
  H   H462      1.0  0.3733686984817914  0.29503246542928135  0.21067017801105697  1.0000
  H   H463      1.0  0.440905549356846  0.29394411992616815  0.18053301383196105  1.0000
  H   H464      1.0  0.42419351716248294  0.2524509153522034  0.19936900409900704  1.0000
  H   H465      1.0  0.34048511784551444  0.3065781769094496  0.12800946269786234  1.0000
  H   H466      1.0  0.3720304849933457  0.3244275177904688  0.168788478092435  1.0000
  H   H467      1.0  0.41588629262934707  0.2975998794007839  0.12043028681299763  1.0000
  H   H468      1.0  0.38378006657149344  0.2802798145212516  0.07998746996058703  1.0000
  H   H469      1.0  0.46292895124376193  0.3396852181971068  0.2101399648935223  1.0000
  H   H470      1.0  0.5053988241381276  0.35221268384153426  0.19111299517683147  1.0000
  H   H471      1.0  0.48351928799267424  0.35987106696993176  0.09999104974801652  1.0000
  H   H472      1.0  0.4411835396984753  0.3494371792075969  0.11914549474527714  1.0000
  H   H473      1.0  0.41659454456966766  0.3679512554577606  0.1565169978323119  1.0000
  H   H474      1.0  0.408029015178008  0.3964874192624926  0.18675455463163682  1.0000
  H   H475      1.0  0.4094287358357981  0.35904983032135074  0.27093400016480634  1.0000
  H   H476      1.0  0.41815677544319424  0.3309666817531235  0.2406200982798655  1.0000
  C   C749      1.0  0.19895187362569786  0.11866620428023562  0.4694335574783889  1.0000
  C   C750      1.0  0.21916246825455246  0.13694415635370147  0.48650730705360246  1.0000
  C   C751      1.0  0.24293227559209196  0.14061859644240207  0.48378269803483115  1.0000
  C   C752      1.0  0.24746413305384973  0.12497296648415526  0.46494157140116876  1.0000
  C   C753      1.0  0.22725996620283548  0.1078674329999736  0.44531598150246166  1.0000
  C   C754      1.0  0.20294707848729895  0.10388977652423592  0.4485355494860826  1.0000
  H   H477      1.0  0.21669147942311093  0.14981571341115638  0.0010665716988960128  1.0000
  H   H478      1.0  0.25870347098883945  0.15515273288047002  0.4973450406141304  1.0000
  H   H479      1.0  0.23068083531523267  0.09641243685737973  0.4285644221968201  1.0000
  H   H480      1.0  0.18729806249933814  0.08999657933631551  0.4337498177672493  1.0000
  C   C755      1.0  0.2761355200458735  0.12474503790497499  0.023928464295961085  1.0000
  C   C756      1.0  0.2900360839656573  0.13659639305926635  0.4978283260184883  1.0000
  C   C757      1.0  0.3161877502899651  0.15202124561952826  0.0018160142824654724  1.0000
  C   C758      1.0  0.3267494308558737  0.15884444331889816  0.03157791501498606  1.0000
  C   C759      1.0  0.31195078719307184  0.14834837262469647  0.057179667471832625  1.0000
  C   C760      1.0  0.2871015356587042  0.12988298882553592  0.052940297243653664  1.0000
  C   C761      1.0  0.2757615412629769  0.12896070262449236  0.4645236579355646  1.0000
  C   C762      1.0  0.2876130514900506  0.14985749491897501  0.4377351713191281  1.0000
  C   C763      1.0  0.2812131932602335  0.14212272193208503  0.4070617237710418  1.0000
  C   C764      1.0  0.29093641774212914  0.15822382610483832  0.3828927841289509  1.0000
  C   C765      1.0  0.3077929582222862  0.1837421668316102  0.388661857723967  1.0000
  C   C766      1.0  0.31373988490366456  0.19243990695932206  0.4194660491495608  1.0000
  C   C767      1.0  0.30366555625092345  0.17579278573839408  0.4431050091453268  1.0000
  C   C768      1.0  0.25724413186038486  0.0800266256666683  0.47224688555689737  1.0000
  C   C769      1.0  0.2603163318100852  0.05931361826862164  0.47042581012018647  1.0000
  C   C770      1.0  0.2780501595207442  0.05876767918623911  0.45049437293659594  1.0000
  C   C771      1.0  0.2947227848211229  0.08092676644173215  0.43571331064195945  1.0000
  C   C772      1.0  0.2934318463087109  0.10234988037030655  0.4403547182934738  1.0000
  C   C773      1.0  0.2748695756700655  0.10270370448591484  0.4584604106161568  1.0000
  C   C774      1.0  0.2822210293207759  0.03526470591319343  0.4456731924535088  1.0000
  C   C775      1.0  0.346839796604441  0.06073113058365864  0.011439482256756013  1.0000
  C   C776      1.0  0.3220237699513708  0.045543508988977396  0.021174951541412294  1.0000
  C   C777      1.0  0.30227839115937005  0.03749754917095737  0.00034281094840826754  1.0000
  C   C778      1.0  0.3060358476503852  0.04330338984501661  0.46908335066363677  1.0000
  C   C779      1.0  0.3312099799318742  0.05846971569886813  0.45924954330539813  1.0000
  C   C780      1.0  0.35102815004841686  0.06659176376352217  0.480184906691278  1.0000
  C   C781      1.0  0.2867580045828665  0.030183091491688914  0.41035133311761307  1.0000
  C   C782      1.0  0.2749751844835804  0.03572276625141043  0.38642753824584875  1.0000
  C   C783      1.0  0.2748918811795153  0.027863505342287605  0.35663661187093765  1.0000
  C   C784      1.0  0.28841264246504056  0.015660605497847608  0.34947838457740493  1.0000
  C   C785      1.0  0.3011685710348345  0.011181204885537003  0.37203403815953784  1.0000
  C   C786      1.0  0.3007744167042545  0.018572527299647444  0.4021775060612993  1.0000
  C   C787      1.0  0.2584193833447687  0.9880756540038345  0.4607274160636519  1.0000
  C   C788      1.0  0.23742156270533327  0.9642786049270036  0.46288002061832817  1.0000
  C   C789      1.0  0.21354247656930617  0.9606103464963877  0.4554439625850921  1.0000
  C   C790      1.0  0.2113889416234388  0.9808643410702655  0.44603507282875265  1.0000
  C   C791      1.0  0.2327446018840067  0.004515977974017371  0.44243728148519945  1.0000
  C   C792      1.0  0.2566001200717518  0.00856585247781827  0.4510150137345273  1.0000
  H   H481      1.0  0.25631916725960024  0.11220014554406338  0.022216933550904677  1.0000
  H   H482      1.0  0.32954020566746944  0.16019893972106228  0.4827344123026733  1.0000
  H   H483      1.0  0.3464443504712338  0.1719906175351512  0.03463988993196849  1.0000
  H   H484      1.0  0.27583885672768454  0.1189790620117089  0.07274892857087117  1.0000
  H   H485      1.0  0.2675826157501903  0.12243470710511364  0.4013463485542877  1.0000
  H   H486      1.0  0.28534505280092065  0.15118584232459134  0.3592654976936767  1.0000
  H   H487      1.0  0.3263605921577551  0.21213579118488113  0.42438995696497517  1.0000
  H   H488      1.0  0.3073983219087843  0.1835456143509745  0.4668280187766334  1.0000
  H   H489      1.0  0.24336828241313785  0.08011322448338704  0.48838208086857526  1.0000
  H   H490      1.0  0.24814133388154674  0.042507361770682074  0.4839858179873874  1.0000
  H   H491      1.0  0.30960147046397485  0.08163654133377998  0.420005367644279  1.0000
  H   H492      1.0  0.30875234793284784  0.11951485785654542  0.4299442370469433  1.0000
  H   H493      1.0  0.31895757384934365  0.041764673363341706  0.04534991474071688  1.0000
  H   H494      1.0  0.28359387477543563  0.02688972347018065  0.010923726178118098  1.0000
  H   H495      1.0  0.3344651091820621  0.06476412410638636  0.435213682252913  1.0000
  H   H496      1.0  0.369959818007298  0.07820417997319722  0.4716818852290973  1.0000
  H   H497      1.0  0.2629903009230125  0.043740907381579416  0.390900846626282  1.0000
  H   H498      1.0  0.26364277735475994  0.030332375770027845  0.3398430277475258  1.0000
  H   H499      1.0  0.31139149037522473  0.0016450853636464924  0.36604316691517874  1.0000
  H   H500      1.0  0.3105468527256967  0.014765045645728822  0.4213758436460089  1.0000
  H   H501      1.0  0.2773144466644025  0.9899076838634497  0.4629967562232455  1.0000
  H   H502      1.0  0.23921593670091135  0.9486364820519774  0.4707713475107419  1.0000
  H   H503      1.0  0.19243145339090548  0.9779375899260195  0.44213143420031603  1.0000
  H   H504      1.0  0.2305112579344068  0.019552825687106284  0.4320618209201443  1.0000
  C   C793      1.0  0.3421548339265872  0.19910081569699464  0.34736080070420394  1.0000
  C   C794      1.0  0.3201527861551678  0.20195709965223074  0.36114727564494453  1.0000
  H   H505      1.0  0.3351070445566393  0.178059849969213  0.34741916850666266  1.0000
  H   H506      1.0  0.3583726189584809  0.2070993779609312  0.3644602321124993  1.0000
  H   H507      1.0  0.3058731441643386  0.19941110752262875  0.34420426994723846  1.0000
  H   H508      1.0  0.32860441936390883  0.22191198079892374  0.36896856117440785  1.0000
  C   C795      1.0  0.32158438281536256  0.15695904848488784  0.09109696400936264  1.0000
  C   C796      1.0  0.30497909604795775  0.16376819510670165  0.1114430460616197  1.0000
  H   H509      1.0  0.3403714687706521  0.17392158914623745  0.0918060160736307  1.0000
  H   H510      1.0  0.32420680536392565  0.1419669631901282  0.10176332970187195  1.0000
  H   H511      1.0  0.2875255517079932  0.14763297250518048  0.11881793463787903  1.0000
  H   H512      1.0  0.2988202780334236  0.17481853688954452  0.09834204259295387  1.0000
  C   C797      1.0  0.43179528863718347  0.14908693455479285  0.19755773445310926  1.0000
  C   C798      1.0  0.41311192627821713  0.1521896587665967  0.17656330285114116  1.0000
  H   H513      1.0  0.42412402994486825  0.14395539136405283  0.22151188058215215  1.0000
  H   H514      1.0  0.44998215907135947  0.16668671626130196  0.1986342702016572  1.0000
  H   H515      1.0  0.42187006163746715  0.1582531311855286  0.15334038855130064  1.0000
  H   H516      1.0  0.39552570955867855  0.1335102619411713  0.17308224711250542  1.0000
  C   C799      1.0  0.36810009462477705  0.07000113339857425  0.03525438615625349  1.0000
  C   C800      1.0  0.37919019483010075  0.052510896532408514  0.03577712819507344  1.0000
  H   H517      1.0  0.38332798342193936  0.08981158945363296  0.02833920239215873  1.0000
  H   H518      1.0  0.36165331961772607  0.0718673353647769  0.05853263313282486  1.0000
  H   H519      1.0  0.38928258975094077  0.05415216530482089  0.013417198699152921  1.0000
  H   H520      1.0  0.3641182564674022  0.032502851501820314  0.0346412907592275  1.0000
  C   C801      1.0  0.5265408787932236  0.000270961704107453  0.03295422779696176  1.0000
  C   C802      1.0  0.5377709737182165  0.9946687411716274  0.06178418667219309  1.0000
  H   H521      1.0  0.5067097061684134  0.994421089800642  0.03693958134884054  1.0000
  H   H522      1.0  0.5353293327611618  0.021115923506264917  0.03090878652759973  1.0000
  H   H523      1.0  0.5562425796007169  0.9969080241432505  0.056338704174007936  1.0000
  H   H524      1.0  0.5251107457306853  0.9741626383335564  0.06761536360902522  1.0000
  C   C803      1.0  0.5368458409568747  0.0196341846774276  0.273553547139152  1.0000
  C   C804      1.0  0.555406998980222  0.038930916389092116  0.298086701868585  1.0000
  H   H525      1.0  0.5424901166021728  0.005271012242127337  0.26866232529311446  1.0000
  H   H526      1.0  0.5174015239381571  0.010170665729381436  0.2831585527117526  1.0000
  H   H527      1.0  0.5516505733719022  0.05476904548345161  0.30164947253066293  1.0000
  H   H528      1.0  0.575136746879653  0.04828433073298302  0.28907004374476786  1.0000
  C   C805      1.0  0.17474920717326792  0.9356376070067294  0.48936265994988115  1.0000
  C   C806      1.0  0.19113695679467935  0.934897698008937  0.4616099372368272  1.0000
  H   H529      1.0  0.16281788542612996  0.9434121235589862  0.48074757230697973  1.0000
  H   H530      1.0  0.1876585066651701  0.9496819235332604  0.007461348136269087  1.0000
  H   H531      1.0  0.18001914991351675  0.9270664493091132  0.4399624866609514  1.0000
  H   H532      1.0  0.19781580008203867  0.9210658084329045  0.4674887423004656  1.0000
  C   C807      1.0  0.3986239627800665  0.9284899511298833  0.3719149678425221  1.0000
  C   C808      1.0  0.4230366528314268  0.949502261622041  0.356867748368674  1.0000
  H   H533      1.0  0.3985444419774194  0.9324118268975673  0.3973656644266056  1.0000
  H   H534      1.0  0.39968679559995945  0.9111154530867107  0.37248697230661726  1.0000
  H   H535      1.0  0.4216326241177756  0.9462894319658683  0.3313119897401649  1.0000
  H   H536      1.0  0.4234793112262972  0.967455875567098  0.35915576622505435  1.0000
  C   C809      1.0  0.3941308741320226  0.9473343976584772  0.20205158830000808  1.0000
  C   C810      1.0  0.4191584571790877  0.9723486226074278  0.2101990331096105  1.0000
  H   H537      1.0  0.3875602329437327  0.9462221722207664  0.17751866704178487  1.0000
  H   H538      1.0  0.399293102718907  0.9323343020841041  0.20254304519671018  1.0000
  H   H539      1.0  0.4345411653940832  0.9696654686903818  0.2008288995741036  1.0000
  H   H540      1.0  0.4217839898657901  0.9739423379102844  0.23560747140471391  1.0000
  C   C811      1.0  0.2876103219953346  0.006110334483180077  0.31627410911471016  1.0000
  C   C812      1.0  0.2654292821620949  0.9783861738799556  0.30942172910606097  1.0000
  H   H541      1.0  0.286947952615699  0.01933271610943769  0.2990159172837272  1.0000
  H   H542      1.0  0.3061517741474604  0.0077864640865105625  0.312998508040729  1.0000
  H   H543      1.0  0.2508734606623467  0.9719650481151741  0.3277165331087101  1.0000
  H   H544      1.0  0.25588644723692333  0.9783587203485076  0.2876201875316942  1.0000
  C   C813      1.0  0.1450914877937272  0.829897885111253  0.18932997554732367  1.0000
  C   C814      1.0  0.15520871784114834  0.8253719093167021  0.15794140568351359  1.0000
  H   H545      1.0  0.12439616252487226  0.8167622406802725  0.18981956467434707  1.0000
  H   H546      1.0  0.14685535729050161  0.848959161432417  0.18845539239528278  1.0000
  H   H547      1.0  0.15361758336863607  0.8065105279561259  0.15982224974994214  1.0000
  H   H548      1.0  0.17566687909226625  0.8391956100688494  0.15390772359119903  1.0000
  C   C815      1.0  0.14533357569602684  0.8127344915032965  0.39145884281778703  1.0000
  C   C816      1.0  0.14906572593386802  0.7997327053569953  0.4202341694299171  1.0000
  H   H549      1.0  0.14843931870715701  0.8315755737515077  0.39858905356613955  1.0000
  H   H550      1.0  0.125514762824096  0.8011424935486771  0.38452474788569563  1.0000
  H   H551      1.0  0.14005408220022844  0.7788108725879229  0.4163585473466606  1.0000
  H   H552      1.0  0.16981204463124824  0.8073541103010418  0.422734646087247  1.0000
  C   C817      1.0  0.17164109274774125  0.1400811332485979  0.45830165019346913  1.0000
  C   C818      1.0  0.17281340948001922  0.11737099724986372  0.4719527118325056  1.0000
  H   H553      1.0  0.151130993111116  0.13561702193781236  0.45898572083828487  1.0000
  H   H554      1.0  0.17661475147161043  0.141201755505851  0.43342996220977575  1.0000
  H   H555      1.0  0.15793651816279258  0.09881500178386425  0.46094687900089665  1.0000
  H   H556      1.0  0.16679272518796492  0.11457369755683455  0.4961403291713832  1.0000
  C   C819      1.0  0.3181942123785224  0.25386661984822967  0.08177796066880953  1.0000
  C   C820      1.0  0.33833621331164565  0.282214190922067  0.07709592902678394  1.0000
  H   H557      1.0  0.3260117548577953  0.24229920267986418  0.07292893487365375  1.0000
  H   H558      1.0  0.31508014338866464  0.24953054176222011  0.10696343395852079  1.0000
  H   H559      1.0  0.32881304140400375  0.2936471937830749  0.07722223695130453  1.0000
  H   H560      1.0  0.34679311931216533  0.2841304103487812  0.054097380559594566  1.0000
  C   C821      1.0  0.19965179309103992  0.32893876278469314  0.21050861593385137  1.0000
  C   C822      1.0  0.18874282406683282  0.3385686094006283  0.18459587982550493  1.0000
  H   H561      1.0  0.21919487093729048  0.33363788493988805  0.20498235239706336  1.0000
  H   H562      1.0  0.18822534204113425  0.3081496609767004  0.21252020387778736  1.0000
  H   H563      1.0  0.19990287143994648  0.3595804189984992  0.18416489197215002  1.0000
  H   H564      1.0  0.1689835564031091  0.33334102382653213  0.19120078035172933  1.0000
  C   C823      1.0  0.19121743221701196  0.35126730826138525  0.44883906205886764  1.0000
  C   C824      1.0  0.18045577029454196  0.33288103033747796  0.4208598722722741  1.0000
  H   H565      1.0  0.18179424367977823  0.36274957271999453  0.4497169138078463  1.0000
  H   H566      1.0  0.21059624358904733  0.3657291427533176  0.44501480364177487  1.0000
  H   H567      1.0  0.1915763697486451  0.32315970035595554  0.4160713777585639  1.0000
  H   H568      1.0  0.16113017400552107  0.31739646208468303  0.42627173491624304  1.0000
  C   C825      1.0  0.052892645428264135  0.2623368711389075  0.0260086927755885  1.0000
  C   C826      1.0  0.05919023627644201  0.24229231516839936  0.03719079637062271  1.0000
  H   H569      1.0  0.06749415411969942  0.2754561605785235  0.010157940609860194  1.0000
  H   H570      1.0  0.05450517882719985  0.2737921063646611  0.04684132882914111  1.0000
  H   H571      1.0  0.05407666556084942  0.2269511800110876  0.019849605524543505  1.0000
  H   H572      1.0  0.048068872528603875  0.23236244306597292  0.05852819717983801  1.0000
  C   C827      1.0  0.006727659683897897  0.2776751628663856  0.3413465823388614  1.0000
  C   C828      1.0  0.03659419513023904  0.29160976540276495  0.34234350440485567  1.0000
  H   H573      1.0  0.9993659707858581  0.26306899082518465  0.3228813443530329  1.0000
  H   H574      1.0  0.000995985283383995  0.29143541205238244  0.3336140158691353  1.0000
  H   H575      1.0  0.04427113678306076  0.279244654185371  0.3346109379351296  1.0000
  H   H576      1.0  0.0428220216073646  0.29529256894759054  0.3672385395095326  1.0000
  C   C829      1.0  0.6287948676720739  0.16950868144603853  0.13876921687430555  1.0000
  C   C830      1.0  0.650807506799597  0.16652478078510904  0.12530376484708772  1.0000
  H   H577      1.0  0.626266538009172  0.18271128013374285  0.123815852826811  1.0000
  H   H578      1.0  0.6351226693455309  0.1796041256512806  0.16084181852329038  1.0000
  H   H579      1.0  0.6688077020685788  0.18555645916268826  0.1264883977657891  1.0000
  H   H580      1.0  0.6465768457785986  0.1622073093530775  0.10014700851618613  1.0000
  C   C831      1.0  0.6047868130876244  0.018461303970388303  0.24976983499328842  1.0000
  C   C832      1.0  0.612787122167747  0.9982093587372244  0.2524127290886175  1.0000
  H   H581      1.0  0.6034064000067806  0.024840820468580736  0.2732430304300718  1.0000
  H   H582      1.0  0.5856285108485912  0.008406568157950378  0.2405617304774068  1.0000
  H   H583      1.0  0.6106655063794499  0.989151205407961  0.22939386862617253  1.0000
  H   H584      1.0  0.6336034550845966  0.008128636559370015  0.25725025255639306  1.0000
  C   C833      1.0  0.7959593878103557  0.12875267033993995  0.37845449642999285  1.0000
  C   C834      1.0  0.8162594328263688  0.1422293305493331  0.35269094842473075  1.0000
  H   H585      1.0  0.7797534134473846  0.10977685156467246  0.3714643684075411  1.0000
  H   H586      1.0  0.7864197881865791  0.13966505818438554  0.38389437561914197  1.0000
  H   H587      1.0  0.8266834388799943  0.16254325077971582  0.3598841963997387  1.0000
  H   H588      1.0  0.8295296903306705  0.13499752781128987  0.35211427453643895  1.0000
  C   C835      1.0  0.8162178623805673  0.12474646981484733  0.0933093371937565  1.0000
  C   C836      1.0  0.8227322302095077  0.11051437566402732  0.11783852291262235  1.0000
  H   H589      1.0  0.821732893595578  0.14344634537620501  0.10316859291386715  1.0000
  H   H590      1.0  0.7954440730277804  0.11549740622502151  0.09069959601022393  1.0000
  H   H591      1.0  0.8438751252363287  0.11824969139346157  0.11894774463054714  1.0000
  H   H592      1.0  0.8129109552628957  0.08990588068114545  0.11252144957984628  1.0000
  C   C837      1.0  0.9399064747129251  0.674031211399512  0.06807039899699309  1.0000
  C   C838      1.0  0.9485316879635798  0.6542421135900163  0.06183321562625838  1.0000
  H   H593      1.0  0.9201646894827564  0.6646320348332934  0.059982022403478844  1.0000
  H   H594      1.0  0.9390356679667599  0.6772054696604062  0.09337564301734956  1.0000
  H   H595      1.0  0.9692171114802263  0.6634417385511933  0.06037845651777821  1.0000
  H   H596      1.0  0.9428061994763055  0.6450606611883212  0.03825425773141989  1.0000
  C   C839      1.0  0.9408221211353289  0.826020976416527  0.4681961600662648  1.0000
  C   C840      1.0  0.9648652475933034  0.8276404357387652  0.4537116062081184  1.0000
  H   H597      1.0  0.9438946076450194  0.8330221834834801  0.49285772396110694  1.0000
  H   H598      1.0  0.9368466806471175  0.8395352162852654  0.45597394223141696  1.0000
  H   H599      1.0  0.9815144536546121  0.8471490499434469  0.4561910704565632  1.0000
  H   H600      1.0  0.9612214241481578  0.8242943847868418  0.4283146080022969  1.0000
  C   C841      1.0  0.8565891250063441  0.677158904890127  0.32812977715011754  1.0000
  C   C842      1.0  0.8726894287626006  0.6644764599919  0.32303777006362216  1.0000
  H   H601      1.0  0.8359438293001743  0.663555446334386  0.32149686007871303  1.0000
  H   H602      1.0  0.8626405745996036  0.6934187159386183  0.3134444380515133  1.0000
  H   H603      1.0  0.8684263567954968  0.6493402241974957  0.3403473255607688  1.0000
  H   H604      1.0  0.8933468033483997  0.6778944234399349  0.327251925401139  1.0000
  C   C843      1.0  0.8648594929494263  0.6635102690638314  0.05239654279594859  1.0000
  C   C844      1.0  0.8768757525607405  0.6821041889817422  0.07968302350296254  1.0000
  H   H605      1.0  0.8471188902253085  0.6468811717634759  0.05917724714317855  1.0000
  H   H606      1.0  0.8768583695006409  0.6550260386317909  0.04619274580822025  1.0000
  H   H607      1.0  0.8673125602334999  0.6935317421853624  0.08192925001278245  1.0000
  H   H608      1.0  0.8970066317104662  0.6958712162376486  0.07548754586223251  1.0000
  C   C845      1.0  0.20532546843720426  0.7100779502686945  0.31044900242933376  1.0000
  C   C846      1.0  0.2178719120072273  0.7284170205648355  0.28226435797808563  1.0000
  H   H609      1.0  0.21783201556317283  0.7189068702151669  0.3312326095288211  1.0000
  H   H610      1.0  0.20741124967473257  0.6931217166763562  0.3061251156231946  1.0000
  H   H611      1.0  0.21143875529244255  0.7182812372328075  0.2593258116118238  1.0000
  H   H612      1.0  0.2386691298039601  0.7340822874561099  0.2833780156489973  1.0000
  C   C847      1.0  0.08222505590953935  0.7415518538501574  0.40626325223340704  1.0000
  C   C848      1.0  0.0548666137463476  0.7355720324864587  0.399116698500366  1.0000
  H   H613      1.0  0.09488514198147843  0.7618764260237206  0.4001252941268521  1.0000
  H   H614      1.0  0.08428691995105102  0.7403700971414295  0.4320875027532261  1.0000
  H   H615      1.0  0.041842126850464866  0.7152743983160683  0.39310014542292515  1.0000
  H   H616      1.0  0.05480692429665922  0.7445601055061722  0.37720075603318026  1.0000
  C   C849      1.0  0.09143675003748596  0.49447876171988253  0.3233599603331941  1.0000
  C   C850      1.0  0.07297447164513937  0.4738282240438384  0.30022529815067106  1.0000
  H   H617      1.0  0.09446977971747894  0.48446101396229857  0.34331007521357143  1.0000
  H   H618      1.0  0.11051995227863257  0.5060156700362162  0.3137199340791183  1.0000
  H   H619      1.0  0.0756735588394482  0.48327446017596837  0.2776066073418828  1.0000
  H   H620      1.0  0.053275512403255905  0.4675719741186174  0.3074418932466625  1.0000
  C   C851      1.0  0.9986503509144091  0.589277862547571  0.23952511830574064  1.0000
  C   C852      1.0  0.019169607627423348  0.6174795788395692  0.2377343941263083  1.0000
  H   H621      1.0  0.9930093438193135  0.5844853826987141  0.2642567235635332  1.0000
  H   H622      1.0  0.007384620010472363  0.5769394719769221  0.23409224325288655  1.0000
  H   H623      1.0  0.009898261345935964  0.6287848019226607  0.23532730595291224  1.0000
  H   H624      1.0  0.030201781154346564  0.6200211127495835  0.2155639680404027  1.0000
  C   C853      1.0  0.8748541139596936  0.27512086220726145  0.1970954614576365  1.0000
  C   C854      1.0  0.8662363144979667  0.2500545147984483  0.17838577911511105  1.0000
  H   H625      1.0  0.8834553323010709  0.27368293657904186  0.21912510440401176  1.0000
  H   H626      1.0  0.857964979065744  0.27649282949079174  0.20425789123294621  1.0000
  H   H627      1.0  0.8836077118826176  0.2485212805521469  0.1731399145013346  1.0000
  H   H628      1.0  0.8598108907620851  0.2521223291375725  0.15478604228259726  1.0000
  C   C855      1.0  0.8950167475214764  0.29554785871777384  0.007895604586561689  1.0000
  C   C856      1.0  0.8875439197060238  0.26708288815891534  0.010323705168842845  1.0000
  H   H629      1.0  0.8770890461751424  0.29536601354736197  0.0016525844355811394  1.0000
  H   H630      1.0  0.9067989286055604  0.30350629575608146  0.4870653032451074  1.0000
  H   H631      1.0  0.8814496874161376  0.25988250633610843  0.033876672547018774  1.0000
  H   H632      1.0  0.8701126167262031  0.2558523776139235  0.4966072715910527  1.0000
  C   C857      1.0  0.8503831894389078  0.44988852800035106  0.10502212084874504  1.0000
  C   C858      1.0  0.85143656079125  0.47452540094758144  0.09550349962378325  1.0000
  H   H633      1.0  0.8404769386723923  0.4361762448012975  0.08613850245489273  1.0000
  H   H634      1.0  0.8386883115800778  0.44225443777605905  0.125629690656017  1.0000
  H   H635      1.0  0.8564779871579019  0.4770966557661479  0.07041001399074688  1.0000
  H   H636      1.0  0.8318839726580659  0.47190700528052654  0.09624897319678553  1.0000
  C   C859      1.0  0.06331205217051293  0.3942326788590385  0.14017377967267125  1.0000
  C   C860      1.0  0.05480005682174617  0.4143534093936724  0.13853831384777898  1.0000
  H   H637      1.0  0.0798955285481704  0.400888269265774  0.1244485598054631  1.0000
  H   H638      1.0  0.04853769948169725  0.3754756358444256  0.13004603206125065  1.0000
  H   H639      1.0  0.06343990985724435  0.42749784442101624  0.11854990968898874  1.0000
  H   H640      1.0  0.06232813089156447  0.4273773504180575  0.15998497918319696  1.0000
  C   C861      1.0  0.01872346494837461  0.5335899557837969  0.02574953973267195  1.0000
  C   C862      1.0  0.006011683623297463  0.5180043279462264  0.49587417199217165  1.0000
  H   H641      1.0  0.018579349396339002  0.5521086609197363  0.025681132668190373  1.0000
  H   H642      1.0  0.039278881415419624  0.5388286604754265  0.026926701572658637  1.0000
  H   H643      1.0  0.9853455238079658  0.5103530042894676  0.4951340682569955  1.0000
  H   H644      1.0  0.007182922130587578  0.5003601427471109  0.49624772592790717  1.0000
  C   C863      1.0  0.003806987616747971  0.5218781450682461  0.23803090256279838  1.0000
  C   C864      1.0  0.9840482431462148  0.5173765865611314  0.26299597903042565  1.0000
  H   H645      1.0  0.018192619223081165  0.5173337072132143  0.24612301469567  1.0000
  H   H646      1.0  0.014559497561880243  0.5422911002362165  0.23333112710882534  1.0000
  H   H647      1.0  0.972105530938676  0.5255939335455154  0.25404469284536224  1.0000
  H   H648      1.0  0.9703375196130386  0.4962787498887234  0.26489176525428365  1.0000
  C   C865      1.0  0.8634777489530997  0.02888369957221955  0.4429836041162128  1.0000
  C   C866      1.0  0.888319268982545  0.05114840727447326  0.4561887357444649  1.0000
  H   H649      1.0  0.8632754610098872  0.010614901227329405  0.4442069932557467  1.0000
  H   H650      1.0  0.8608527369407786  0.030832117834433393  0.4179391474372417  1.0000
  H   H651      1.0  0.8922571259951951  0.045423369078874634  0.4788307736742366  1.0000
  H   H652      1.0  0.9037309850922829  0.05378840963259885  0.44111583443753494  1.0000
  C   C867      1.0  0.7496228032811605  0.07075908002979442  0.07083563200627559  1.0000
  C   C868      1.0  0.720906325191459  0.05749899281962484  0.07657412087280333  1.0000
  H   H653      1.0  0.7603824629077869  0.07525817932648936  0.09259468182045241  1.0000
  H   H654      1.0  0.7565983716420152  0.08869646817649736  0.05804841384362764  1.0000
  H   H655      1.0  0.7138772677558957  0.03713959669759727  0.08266608515102083  1.0000
  H   H656      1.0  0.7110932397682925  0.056595360607424185  0.05435816790097996  1.0000
  C   C869      1.0  0.7401660654108452  0.8146696173555678  0.4954982833443377  1.0000
  C   C870      1.0  0.7512725813345988  0.8047293547832647  0.021323345842383244  1.0000
  H   H657      1.0  0.722708695132194  0.7989469913349053  0.4842659834391891  1.0000
  H   H658      1.0  0.7533556379338242  0.8204846485987402  0.47563688752369754  1.0000
  H   H659      1.0  0.7394024519679636  0.7987086233191931  0.0422627249330723  1.0000
  H   H660      1.0  0.7704804348126387  0.8200258977449753  0.02885774194920166  1.0000
  C   C871      1.0  0.6627721781904381  0.9281211054905257  0.40348261012427544  1.0000
  C   C872      1.0  0.6803271861340422  0.9572405055278356  0.4042320527078449  1.0000
  H   H661      1.0  0.6592669202034119  0.9210560809463655  0.42765621919056296  1.0000
  H   H662      1.0  0.6725062752069567  0.9189494615122897  0.39422080723013186  1.0000
  H   H663      1.0  0.6872153705010982  0.9635328473378076  0.38044600584988303  1.0000
  H   H664      1.0  0.6679414029159487  0.9652007847164672  0.4083481501372312  1.0000
  C   C873      1.0  0.5031790965842202  0.8157047360972364  0.2881081423602488  1.0000
  C   C874      1.0  0.503324534174184  0.7912776508516174  0.2982921565332396  1.0000
  H   H665      1.0  0.5066427493135045  0.8171962706617497  0.26269480116973887  1.0000
  H   H666      1.0  0.48351720436229784  0.8130795727922628  0.2893175232271927  1.0000
  H   H667      1.0  0.4877182380667834  0.7744573266033691  0.286079277546785  1.0000
  H   H668      1.0  0.49908392835900484  0.7888496264320377  0.32289768733772134  1.0000
  C   C875      1.0  0.7179441568366182  0.7383141153328405  0.3378281712066521  1.0000
  C   C876      1.0  0.7077008997257486  0.7567612413241693  0.3397216227184117  1.0000
  H   H669      1.0  0.7332284646576672  0.7457503511690154  0.3196571069452153  1.0000
  H   H670      1.0  0.7030058874811078  0.7195383860789559  0.32773054138130026  1.0000
  H   H671      1.0  0.7079434669521805  0.7629218372098955  0.36443221556731914  1.0000
  H   H672      1.0  0.7212305550837024  0.7746715802665793  0.32738266927864645  1.0000
  C   C877      1.0  0.6666913283234095  0.8657954799047097  0.1788445500424363  1.0000
  C   C878      1.0  0.6604539859193452  0.8484033265071943  0.1496457066556661  1.0000
  H   H673      1.0  0.6626255795905566  0.8814414919560324  0.17496239076530448  1.0000
  H   H674      1.0  0.6870160066098183  0.8743993719263995  0.18524352896158647  1.0000
  H   H675      1.0  0.6395854366174346  0.8371585548908794  0.14497464816050273  1.0000
  H   H676      1.0  0.6667367662332316  0.8342035035220835  0.15385075661599934  1.0000
  C   C879      1.0  0.6488979469512794  0.8605742167113758  0.4119856315864562  1.0000
  C   C880      1.0  0.6678952355819667  0.8680178804321756  0.38503604983523376  1.0000
  H   H677      1.0  0.636011854512992  0.868252169924425  0.40911160099339067  1.0000
  H   H678      1.0  0.6353909464523767  0.8403413032039349  0.412461912854519  1.0000
  H   H679      1.0  0.6840755531024963  0.865433453596719  0.3905226232663498  1.0000
  H   H680      1.0  0.6765001671480516  0.8885753265704377  0.3818795190782682  1.0000
  C   C881      1.0  0.26950615704472325  0.49257902846525864  0.31239381760725704  1.0000
  C   C882      1.0  0.292735218287491  0.49309215157788333  0.2987287476956305  1.0000
  H   H681      1.0  0.26620999070695023  0.5064492827673848  0.3000782112884752  1.0000
  H   H682      1.0  0.27305279311116465  0.4994556405706657  0.33655575311305286  1.0000
  H   H683      1.0  0.3087886462405871  0.5121621534980673  0.30025331469585126  1.0000
  H   H684      1.0  0.2893598150231226  0.48829846207251276  0.27305391875010565  1.0000
  C   C883      1.0  0.2576672181932449  0.344894351127833  0.4233953696110792  1.0000
  C   C884      1.0  0.2655645594753986  0.32448309489458393  0.4236942127596677  1.0000
  H   H685      1.0  0.25819506599179665  0.3523527671370548  0.4472584619682866  1.0000
  H   H686      1.0  0.23796059694320273  0.3360382837262044  0.4147452612867026  1.0000
  H   H687      1.0  0.2861739317484881  0.3337441382055105  0.42382962606137187  1.0000
  H   H688      1.0  0.26075992334794645  0.31469425748532964  0.4012763071913373  1.0000
  C   C885      1.0  0.5088312233926562  0.5935785164304102  0.3307843448059385  1.0000
  C   C886      1.0  0.5170004745754031  0.6171391616180225  0.35196251825004643  1.0000
  H   H689      1.0  0.5008123088554766  0.5965682799792418  0.30881937338468735  1.0000
  H   H690      1.0  0.5252391013421078  0.5919695377046172  0.3227015715214602  1.0000
  H   H691      1.0  0.5231364793366711  0.6148165033100684  0.37456720078624456  1.0000
  H   H692      1.0  0.5010181854237955  0.620687019985484  0.35531983424746977  1.0000
  C   C887      1.0  0.39996440889502965  0.3958953054028026  0.2502087608677777  1.0000
  C   C888      1.0  0.37141000369134447  0.3871941181525907  0.24662030837261797  1.0000
  H   H693      1.0  0.4119392487925562  0.41537338430266824  0.2418154708742193  1.0000
  H   H694      1.0  0.4049091248843829  0.3970643490118384  0.27510846539665124  1.0000
  H   H695      1.0  0.35887427773121944  0.366026239123473  0.2475845444692354  1.0000
  H   H696      1.0  0.368125180429123  0.39256108075754714  0.22333155519160403  1.0000
  C   C889      1.0  0.749609646741302  0.5880182818936004  0.15487662911201314  1.0000
  C   C890      1.0  0.727953563083831  0.5714796906670723  0.17740356573533636  1.0000
  H   H697      1.0  0.7493851107295436  0.6052001204366095  0.14831001786420162  1.0000
  H   H698      1.0  0.7445955486278641  0.5763643176566344  0.13315470122020004  1.0000
  H   H699      1.0  0.7324889852890099  0.5797000251106815  0.20170394966856417  1.0000
  H   H700      1.0  0.7261123419673549  0.5524475308964228  0.18024677812870366  1.0000
  C   C891      1.0  0.6852028655640677  0.603710177032473  0.007783538405841007  1.0000
  C   C892      1.0  0.7143363706269414  0.6202537053112533  0.00842457513567626  1.0000
  H   H701      1.0  0.6779019945252421  0.615547523189882  0.49837931807369823  1.0000
  H   H702      1.0  0.679256465949482  0.5887455391861927  0.4899276602776812  1.0000
  H   H703      1.0  0.7215921617397574  0.6096499369899239  0.4947208242155881  1.0000
  H   H704      1.0  0.7215101073376166  0.6209446265775915  0.03278659546830043  1.0000
  C   C893      1.0  0.5457381787578928  0.3824365979691602  0.141527445747293  1.0000
  C   C894      1.0  0.5210295141504678  0.35801164003363956  0.13135370430753499  1.0000
  H   H705      1.0  0.5501446465915631  0.38112554759271944  0.16638068950540943  1.0000
  H   H706      1.0  0.5618455696820871  0.3834229662923882  0.12829172939055253  1.0000
  H   H707      1.0  0.5219597785800563  0.34141171437738305  0.1385847746185361  1.0000
  H   H708      1.0  0.51999544890996  0.3579495974541958  0.10532026358370399  1.0000
  C   C895      1.0  0.5936364664056443  0.6432014371986255  0.17554069895206506  1.0000
  C   C896      1.0  0.5814239316129717  0.6144417270156608  0.18230459337218693  1.0000
  H   H709      1.0  0.6134820621448934  0.6502245024893082  0.16715744822052955  1.0000
  H   H710      1.0  0.5831410056815871  0.6459368803737794  0.1560617289731342  1.0000
  H   H711      1.0  0.5617696700148902  0.6041978541826537  0.17347447874502775  1.0000
  H   H712      1.0  0.5784245749719776  0.6102708846041688  0.20749543649972435  1.0000
  C   C897      1.0  0.4843713576619833  0.48325055907944114  0.49558700240407494  1.0000
  C   C898      1.0  0.4684394447005665  0.47564383605003924  0.02561295907491864  1.0000
  H   H713      1.0  0.49164932291353464  0.46958575038950534  0.4923230748905854  1.0000
  H   H714      1.0  0.5017723336477387  0.5025313358387444  0.49806646665251975  1.0000
  H   H715      1.0  0.45074674398812586  0.457295231267908  0.02217481534465049  1.0000
  H   H716      1.0  0.4621269742923949  0.48920151456559596  0.03184360525177798  1.0000
  C   C899      1.0  0.4651956065744922  0.4660508077391042  0.23274091189036314  1.0000
  C   C900      1.0  0.4738957193199396  0.4586326886232138  0.26263409865518184  1.0000
  H   H717      1.0  0.4664112516529067  0.4844493497236476  0.23642695535123381  1.0000
  H   H718      1.0  0.44481362884628006  0.45225039195371086  0.22806308273011458  1.0000
  H   H719      1.0  0.49554673463243776  0.4683599143443462  0.26268079289714874  1.0000
  H   H720      1.0  0.4663429517431237  0.43820930358795207  0.25981143172828  1.0000
  C   C901      1.0  0.5445406941896445  0.407153445916807  0.6373653544895693  1.0000
  C   C902      1.0  0.5442019060964584  0.4164277001372537  0.6085407654521643  1.0000
  C   C903      1.0  0.5403186358974856  0.4366229882916121  0.606194613264535  1.0000
  C   C904      1.0  0.5348098404631173  0.44653697025479433  0.63164344207894  1.0000
  C   C905      1.0  0.5365057296107074  0.4377573819962312  0.6611415955567181  1.0000
  C   C906      1.0  0.541850656802236  0.41851779822065877  0.6643184383089393  1.0000
  H   H721      1.0  0.5467618093049993  0.4071493683002762  0.5885759418855673  1.0000
  H   H722      1.0  0.541031392735863  0.4435458797266545  0.5831904614883097  1.0000
  H   H723      1.0  0.5357807468738099  0.44669004244520577  0.6826183786782049  1.0000
  H   H724      1.0  0.5425437845472225  0.41255960210407455  0.6871505218035164  1.0000
  C   C907      1.0  0.49073783954676664  0.4476933291203555  0.6649847651418076  1.0000
  C   C908      1.0  0.512148308969597  0.46981562681282124  0.6561509149752911  1.0000
  C   C909      1.0  0.5167713779403291  0.4918807515657015  0.6716762834868807  1.0000
  C   C910      1.0  0.5026107630115418  0.49133008131519057  0.6968124943513168  1.0000
  C   C911      1.0  0.48199069719477766  0.4684654761154621  0.7056526482404989  1.0000
  C   C912      1.0  0.475616516154112  0.4467584002049976  0.6892856160174551  1.0000
  C   C913      1.0  0.5296649125207066  0.4696847392496422  0.628734624275609  1.0000
  C   C914      1.0  0.5126570967990537  0.47063731454683355  0.601061281773899  1.0000
  C   C915      1.0  0.5148426739487086  0.4938226123895425  0.5925841756160098  1.0000
  C   C916      1.0  0.4996304026902065  0.4951337019199908  0.5698300715055175  1.0000
  C   C917      1.0  0.483583077837135  0.47363758161342007  0.5529122806984735  1.0000
  C   C918      1.0  0.48147477196405414  0.45080494853932634  0.5594361667148853  1.0000
  C   C919      1.0  0.49470609944252414  0.4489193932805619  0.5845586027779411  1.0000
  C   C920      1.0  0.5733694713216716  0.5018007731570325  0.6554458319215902  1.0000
  C   C921      1.0  0.5976690222653046  0.5225807688209603  0.6549968667850781  1.0000
  C   C922      1.0  0.6076778402827611  0.5356754962612988  0.6277360679111459  1.0000
  C   C923      1.0  0.5929193968681116  0.5262913818287914  0.6005875686891444  1.0000
  C   C924      1.0  0.5701521630966296  0.5040273486928554  0.6012975546382516  1.0000
  C   C925      1.0  0.5585657820390457  0.4926885365892001  0.6290965046508529  1.0000
  C   C926      1.0  0.6330789534814851  0.5632088005357602  0.6280316424627966  1.0000
  C   C927      1.0  0.5962059801954562  0.6022940450818305  0.6685755523490656  1.0000
  C   C928      1.0  0.6108778626833318  0.5963101329277446  0.6876849374028282  1.0000
  C   C929      1.0  0.6233136386587067  0.5844903022402472  0.6750371015524516  1.0000
  C   C930      1.0  0.620830016785718  0.5782485692989391  0.6433296100160073  1.0000
  C   C931      1.0  0.6064395944026458  0.5850576280729206  0.6249054629631097  1.0000
  C   C932      1.0  0.5938219861526205  0.5962652133090173  0.6376553257321841  1.0000
  C   C933      1.0  0.6465674401914921  0.5735663400089396  0.5951227080805429  1.0000
  C   C934      1.0  0.6487242327258523  0.5579497415160325  0.5730036456608009  1.0000
  C   C935      1.0  0.6600481763184531  0.5675418250855333  0.5450167513242827  1.0000
  C   C936      1.0  0.6715651789704317  0.593297231680692  0.539521305987193  1.0000
  C   C937      1.0  0.6710322578220922  0.6090498635522992  0.5621446662201779  1.0000
  C   C938      1.0  0.6588502319133072  0.5994394203412067  0.5894325477544509  1.0000
  C   C939      1.0  0.6756938076274485  0.5864725323951132  0.6590417554954646  1.0000
  C   C940      1.0  0.6977995027174615  0.5888437491364333  0.670260514070443  1.0000
  C   C941      1.0  0.7019903694723797  0.5685417711240183  0.667808132482339  1.0000
  C   C942      1.0  0.682908923747061  0.545790820333458  0.6552887057973714  1.0000
  C   C943      1.0  0.66020720887005  0.5432805653203466  0.6465022502864514  1.0000
  C   C944      1.0  0.6564004969521426  0.5639411173721032  0.6466418660699326  1.0000
  H   H725      1.0  0.4863550357587329  0.42983116675148875  0.653585766792837  1.0000
  H   H726      1.0  0.531565968768023  0.5108386245068532  0.6642376572703366  1.0000
  H   H727      1.0  0.5069869158411225  0.5085151572552719  0.7090466192178663  1.0000
  H   H728      1.0  0.4605743763954997  0.42904111960942376  0.6966117091108589  1.0000
  H   H729      1.0  0.5281941125626005  0.5114248538888164  0.604193064582622  1.0000
  H   H730      1.0  0.5011635378899868  0.5129385381688353  0.5644305828356697  1.0000
  H   H731      1.0  0.46859105231386583  0.43419192650741933  0.5464964918522153  1.0000
  H   H732      1.0  0.4915812549526493  0.43058927689702753  0.5911656045450541  1.0000
  H   H733      1.0  0.5662762436287374  0.4926318897491094  0.6776986733445675  1.0000
  H   H734      1.0  0.6074939369940313  0.5295245871790082  0.6767582513113531  1.0000
  H   H735      1.0  0.5989280194994973  0.5357365928040225  0.5784374545984943  1.0000
  H   H736      1.0  0.5615267881360901  0.4959770071853744  0.5788131097751184  1.0000
  H   H737      1.0  0.6123359322870691  0.599353657331065  0.7132080100619604  1.0000
  H   H738      1.0  0.6332928195045252  0.578700112843831  0.6909145446484719  1.0000
  H   H739      1.0  0.6040080737219743  0.5798654390743115  0.6002046759050154  1.0000
  H   H740      1.0  0.5818251097958147  0.6002366815606724  0.6227484224554466  1.0000
  H   H741      1.0  0.6410981131279423  0.5378584304712104  0.5756857629193822  1.0000
  H   H742      1.0  0.6617025062230869  0.5541847692905592  0.5291988433867703  1.0000
  H   H743      1.0  0.6798728166240035  0.6287584429904515  0.5589708585936847  1.0000
  H   H744      1.0  0.6589806409331771  0.6122287954943141  0.6077280521707296  1.0000
  H   H745      1.0  0.6742534855397524  0.6036348611707079  0.6594701751655114  1.0000
  H   H746      1.0  0.7114511816931911  0.6068673549410923  0.6807130201347437  1.0000
  H   H747      1.0  0.6867400336267545  0.5300337789086136  0.6520322493625966  1.0000
  H   H748      1.0  0.6461252474895338  0.524739044337209  0.6376151686840925  1.0000
  C   C945      1.0  0.4698486804090312  0.48297920823390866  0.9666505806571589  1.0000
  C   C946      1.0  0.4583472542201099  0.4972326164505209  0.9634403515219315  1.0000
  C   C947      1.0  0.4474281805806734  0.4977389771164863  0.9355732279160587  1.0000
  C   C948      1.0  0.4490426270208471  0.4845234494399408  0.9093824275967989  1.0000
  C   C949      1.0  0.45736979964144026  0.46723763302711707  0.914089207187067  1.0000
  C   C950      1.0  0.468544104830896  0.467393141302438  0.9420707316857589  1.0000
  H   H749      1.0  0.45891874545958566  0.5089022977722244  0.98273908172687  1.0000
  H   H750      1.0  0.44064134506259134  0.5104361904136838  0.9328135982158122  1.0000
  H   H751      1.0  0.45701257541269846  0.4550954585806476  0.8946270471352443  1.0000
  H   H752      1.0  0.4775461679710896  0.45570103673861295  0.9445221793890235  1.0000
  C   C951      1.0  0.47356933528360023  0.4837114252796178  0.8429668725351145  1.0000
  C   C952      1.0  0.4485823924539647  0.47828678400613883  0.8465646638786676  1.0000
  C   C953      1.0  0.43192970844272593  0.4663910223664874  0.8217279965764493  1.0000
  C   C954      1.0  0.43983474987517845  0.45938398944686604  0.7949581876567997  1.0000
  C   C955      1.0  0.46474229362700087  0.4652292669610113  0.7926071325737639  1.0000
  C   C956      1.0  0.48143493544127225  0.4766347339869879  0.8164468778099879  1.0000
  C   C957      1.0  0.4412519147084844  0.48990540737918903  0.8754076971416497  1.0000
  C   C958      1.0  0.45642267199135017  0.5194094412580337  0.8669350269367473  1.0000
  C   C959      1.0  0.4502815200999923  0.5288228845887986  0.8400741642452623  1.0000
  C   C960      1.0  0.46662872431694546  0.5528456320688068  0.8295165961365358  1.0000
  C   C961      1.0  0.4895169784991304  0.5682979793811336  0.8448719976073659  1.0000
  C   C962      1.0  0.49557316100483473  0.5596357227895795  0.8707125911118732  1.0000
  C   C963      1.0  0.4795317087876024  0.5360335029532406  0.881744105776564  1.0000
  C   C964      1.0  0.39751610718924796  0.44983377320501966  0.8835254911076029  1.0000
  C   C965      1.0  0.3718260137321539  0.43534296073222595  0.8756808584571562  1.0000
  C   C966      1.0  0.3591669471630193  0.4465771951464946  0.8623426482392984  1.0000
  C   C967      1.0  0.37211475678320005  0.47269101823065107  0.8617566355026133  1.0000
  C   C968      1.0  0.39702233424923017  0.4875367377312993  0.8718729430247518  1.0000
  C   C969      1.0  0.41102934136699787  0.4759133935637284  0.8787463354422862  1.0000
  C   C970      1.0  0.3321189703005718  0.4288810271917866  0.8453109234818551  1.0000
  C   C971      1.0  0.36186131225949225  0.39896164656443023  0.771354248342509  1.0000
  C   C972      1.0  0.34894751661244305  0.38443269018689374  0.7962539528713823  1.0000
  C   C973      1.0  0.34028266912364363  0.39416651923737633  0.8192485323280045  1.0000
  C   C974      1.0  0.3417064683791996  0.4174924424512471  0.8164982414761516  1.0000
  C   C975      1.0  0.35516222318529783  0.43194279026028054  0.791140933376002  1.0000
  C   C976      1.0  0.3649539718652214  0.4232003294838975  0.7685549285365906  1.0000
  C   C977      1.0  0.3170372742916089  0.4428107077109712  0.83552847978978  1.0000
  C   C978      1.0  0.3149178968524676  0.4599185709619504  0.855254462308716  1.0000
  C   C979      1.0  0.3064856139323274  0.47582619974166723  0.8440945384786162  1.0000
  C   C980      1.0  0.29857413355630646  0.4741466920996181  0.8131269172061381  1.0000
  C   C981      1.0  0.29749380818220333  0.45490428015922746  0.7950679191254221  1.0000
  C   C982      1.0  0.3056193913841485  0.4391234649883224  0.8061881528498499  1.0000
  C   C983      1.0  0.2897188582308466  0.3872768157680669  0.8543439245903606  1.0000
  C   C984      1.0  0.27230287555231925  0.36746269981589186  0.8718822818731452  1.0000
  C   C985      1.0  0.27559459766713423  0.36768578547550074  0.9037861226970606  1.0000
  C   C986      1.0  0.2952483225019681  0.38898470191093665  0.9180628871784542  1.0000
  C   C987      1.0  0.3130904446461712  0.40856538533658493  0.8997727526000018  1.0000
  C   C988      1.0  0.31106343203436154  0.40749648516351794  0.8675864116121863  1.0000
  H   H753      1.0  0.48708321845440106  0.4937466599652583  0.8615325031411719  1.0000
  H   H754      1.0  0.41300652962312717  0.462290291624006  0.8211910127938294  1.0000
  H   H755      1.0  0.4262721179215286  0.4517036743013346  0.7758812551012043  1.0000
  H   H756      1.0  0.5011623569314181  0.4811630458993658  0.8145464221619332  1.0000
  H   H757      1.0  0.43317775692612603  0.5165752043496384  0.8271702104776969  1.0000
  H   H758      1.0  0.46138175349565436  0.5592742671137511  0.8081656539971501  1.0000
  H   H759      1.0  0.5136551143107281  0.570796671957146  0.8820219365162675  1.0000
  H   H760      1.0  0.48658974603050764  0.5303279589737406  0.9009704599064539  1.0000
  H   H761      1.0  0.4076952497359211  0.4394990138838287  0.8882439442583628  1.0000
  H   H762      1.0  0.3619845202839361  0.4149790173748402  0.8807261713016847  1.0000
  H   H763      1.0  0.3641871814285233  0.48340899368087337  0.8509118978057901  1.0000
  H   H764      1.0  0.4059571374383752  0.5078798328162885  0.8689265363566376  1.0000
  H   H765      1.0  0.34670547624107156  0.36579718904766867  0.799081289222481  1.0000
  H   H766      1.0  0.33184534682848  0.3834016981506169  0.840060155972672  1.0000
  H   H767      1.0  0.35811250043647835  0.4508257940821095  0.7880007456037248  1.0000
  H   H768      1.0  0.3746810348511074  0.4345595506782433  0.7492795454526354  1.0000
  H   H769      1.0  0.32048385335778734  0.4622684265492325  0.8795681541009044  1.0000
  H   H770      1.0  0.30693607371826764  0.48991630099767824  0.8591674397855461  1.0000
  H   H771      1.0  0.29087810593296437  0.4518519257820289  0.7707542273332337  1.0000
  H   H772      1.0  0.3060682150184618  0.42564822036337735  0.790132337749516  1.0000
  H   H773      1.0  0.2861454043670892  0.38597760343587306  0.8295282696970276  1.0000
  H   H774      1.0  0.25688959970228603  0.3508203110141035  0.860948825116585  1.0000
  H   H775      1.0  0.29540431538740125  0.389850264801222  0.9429929429646061  1.0000
  H   H776      1.0  0.32817551499834247  0.4255242292554912  0.910834618521971  1.0000
  C   C989      1.0  0.528737922939922  0.7921821546987994  0.7934149429597922  1.0000
  C   C990      1.0  0.5372701656563329  0.7900301810638303  0.7641913516247794  1.0000
  C   C991      1.0  0.5610284447862725  0.7927819853988045  0.7604488081311289  1.0000
  C   C992      1.0  0.5759857788246584  0.7959122811856812  0.7866769638439619  1.0000
  C   C993      1.0  0.5662613396491837  0.79590498691456  0.8154686334407805  1.0000
  C   C994      1.0  0.5433786289669374  0.7949776547308611  0.819008056981875  1.0000
  H   H777      1.0  0.5263720935376898  0.7884073980129743  0.7436762364166021  1.0000
  H   H778      1.0  0.5670996136681715  0.792005596765975  0.7370363152089024  1.0000
  H   H779      1.0  0.5770073953734599  0.7969049541589714  0.8361681909047272  1.0000
  H   H780      1.0  0.53663560647399  0.794308941506489  0.8423972027831177  1.0000
  C   C995      1.0  0.6212841153937905  0.8419554901887776  0.8176399156922434  1.0000
  C   C996      1.0  0.6223367466106281  0.8206128466705263  0.809071522291309  1.0000
  C   C997      1.0  0.6404200586507701  0.8165477691941276  0.8235397331647668  1.0000
  C   C998      1.0  0.6557250563799057  0.832321763238366  0.847353796567909  1.0000
  C   C999      1.0  0.6536136739286372  0.8530690369484526  0.855812458500221  1.0000
  C   C1000     1.0  0.6360443670577319  0.8574480095732794  0.8412158384613542  1.0000
  C   C1001     1.0  0.6046818496609263  0.8022158168549195  0.7822993786595608  1.0000
  C   C1002     1.0  0.6208382775850518  0.8193025705348272  0.7532415518835308  1.0000
  C   C1003     1.0  0.6437097707380882  0.8205968862840173  0.745375906824199  1.0000
  C   C1004     1.0  0.6585935349415686  0.8353319090879868  0.7219111163509697  1.0000
  C   C1005     1.0  0.6513493304426425  0.8503178644654469  0.7062869895176199  1.0000
  C   C1006     1.0  0.6285462361825976  0.849275593021841  0.7137239814356953  1.0000
  C   C1007     1.0  0.613852476531944  0.8342879406161566  0.7369872862548372  1.0000
  C   C1008     1.0  0.5947083968182495  0.760029062435893  0.8104139817478586  1.0000
  C   C1009     1.0  0.5956014823714971  0.738119893291196  0.8116770609930644  1.0000
  C   C1010     1.0  0.5996395759223451  0.7276973932107351  0.785117376162266  1.0000
  C   C1011     1.0  0.602953596959061  0.7401737258484499  0.7569607482561981  1.0000
  C   C1012     1.0  0.6024671673403132  0.7624554677810671  0.7561225866128913  1.0000
  C   C1013     1.0  0.6004931089306911  0.7740858282536226  0.7830955154850973  1.0000
  C   C1014     1.0  0.6029537292812046  0.7033283263038164  0.7874077287307447  1.0000
  C   C1015     1.0  0.6806660012415453  0.7447325336594477  0.8268807061775019  1.0000
  C   C1016     1.0  0.6600902033510164  0.7320303476391062  0.8466650564988966  1.0000
  C   C1017     1.0  0.6357822304172754  0.7189252263368865  0.8347883760546041  1.0000
  C   C1018     1.0  0.63123162991964  0.7178587464978528  0.8028448451250167  1.0000
  C   C1019     1.0  0.6521531244681387  0.7313298470463786  0.7832472717714898  1.0000
  C   C1020     1.0  0.676643127438465  0.7444463136759822  0.7951192827915857  1.0000
  C   C1021     1.0  0.6002189852037974  0.6870209429176691  0.7565591777752823  1.0000
  C   C1022     1.0  0.5811674373642916  0.6816897583095466  0.7346759212774734  1.0000
  C   C1023     1.0  0.5790082778288131  0.66800219326217  0.708176938961232  1.0000
  C   C1024     1.0  0.5953447965264532  0.6587880397474103  0.7037932835253751  1.0000
  C   C1025     1.0  0.6135670972461378  0.6635935947598653  0.725515678359608  1.0000
  C   C1026     1.0  0.6151447391543012  0.6757449772703882  0.7523777084071422  1.0000
  C   C1027     1.0  0.5835805583384245  0.6636782202098929  0.8235280596042752  1.0000
  C   C1028     1.0  0.5637198526753655  0.6435581372934189  0.8381807127335025  1.0000
  C   C1029     1.0  0.5395827412466342  0.6403742602767354  0.8370530467900008  1.0000
  C   C1030     1.0  0.5355983343858616  0.6566116076057806  0.8195427060523963  1.0000
  C   C1031     1.0  0.5553871256090898  0.6769463266571485  0.8052799498435929  1.0000
  C   C1032     1.0  0.5800075756462202  0.6806060557955524  0.8061461280320797  1.0000
  H   H781      1.0  0.6074151233859878  0.8459904724446354  0.8073905295804988  1.0000
  H   H782      1.0  0.6434079284111914  0.80135236922389  0.8160569808895639  1.0000
  H   H783      1.0  0.6683422064214616  0.8273463309063827  0.8590647124532189  1.0000
  H   H784      1.0  0.6348529437971325  0.8736093623341559  0.8501764634948108  1.0000
  H   H785      1.0  0.6496148471244287  0.8088613842877721  0.7577592197938328  1.0000
  H   H786      1.0  0.6765142058645309  0.8355991422054626  0.717863425986065  1.0000
  H   H787      1.0  0.6218837137399476  0.8601662176121854  0.7007712321852745  1.0000
  H   H788      1.0  0.597711352707363  0.8360122111619585  0.742922124408836  1.0000
  H   H789      1.0  0.5929122664857011  0.7681911602702026  0.8324910193498303  1.0000
  H   H790      1.0  0.594234527818054  0.7298146266691227  0.8342840782413609  1.0000
  H   H791      1.0  0.6069428921827125  0.7332529813569894  0.7359903641888429  1.0000
  H   H792      1.0  0.6048818161217429  0.771602276482072  0.7335599288944633  1.0000
  H   H793      1.0  0.6622730115533326  0.7317306271058927  0.8720246993111445  1.0000
  H   H794      1.0  0.6201730539413042  0.710314017999068  0.8508932201090035  1.0000
  H   H795      1.0  0.6489058175435292  0.7313294943323828  0.7584502945749436  1.0000
  H   H796      1.0  0.6927834266105998  0.7542927702114655  0.780270513846097  1.0000
  H   H797      1.0  0.5684085086329712  0.6889350666087142  0.7384931755582711  1.0000
  H   H798      1.0  0.5649017761376347  0.6660221948850799  0.6910632658091368  1.0000
  H   H799      1.0  0.6256378208595109  0.6554751341484151  0.7234352164087708  1.0000
  H   H800      1.0  0.6298333322535391  0.6783236827355194  0.768793069170622  1.0000
  H   H801      1.0  0.6023147714736337  0.6653914131194132  0.8237802085108966  1.0000
  H   H802      1.0  0.5673485792679791  0.6308625277490381  0.8515772907538192  1.0000
  H   H803      1.0  0.5166554132322712  0.6542946280290793  0.8175745437534896  1.0000
  H   H804      1.0  0.5512240387673033  0.6888726163469034  0.7914654583576722  1.0000
  C   C1033     1.0  0.6731841847816241  0.86327212377718  0.6199824890325346  1.0000
  C   C1034     1.0  0.6991012553916848  0.8764786996069854  0.6170851113184856  1.0000
  C   C1035     1.0  0.7096480363716134  0.8869038397252931  0.5892436695456946  1.0000
  C   C1036     1.0  0.6946584870620446  0.8820929701052316  0.5627976851940857  1.0000
  C   C1037     1.0  0.668620593745712  0.8711054549569498  0.5669826566303732  1.0000
  C   C1038     1.0  0.6580685221109133  0.8616616030343567  0.5949833257682715  1.0000
  H   H805      1.0  0.7109924431998771  0.8777239198722813  0.6364842341436531  1.0000
  H   H806      1.0  0.7306929607939353  0.8961633610532788  0.5857978679597439  1.0000
  H   H807      1.0  0.6566765586143422  0.8695738099717678  0.5479916414799968  1.0000
  H   H808      1.0  0.6377458554760326  0.8528488397549334  0.598106003199811  1.0000
  C   C1039     1.0  0.6693155073894622  0.8572696381377072  0.9945573943687038  1.0000
  C   C1040     1.0  0.6905787951523785  0.8815874008172259  0.9996914262729694  1.0000
  C   C1041     1.0  0.69692858238233  0.8984702314046549  0.9751279202862578  1.0000
  C   C1042     1.0  0.6838049926091586  0.8924098681156508  0.9480919541873966  1.0000
  C   C1043     1.0  0.6624592822149906  0.8689238672536459  0.9437353814118806  1.0000
  C   C1044     1.0  0.6551340585527434  0.8516728468627265  0.967551779527121  1.0000
  C   C1045     1.0  0.7085129312687716  0.88825404870818  0.5294621989114637  1.0000
  C   C1046     1.0  0.7206490594466494  0.8705935386409447  0.5230552352769372  1.0000
  C   C1047     1.0  0.7356173399328191  0.874204623989926  0.996749689029052  1.0000
  C   C1048     1.0  0.7425092235885381  0.8567123673638495  0.9877937334197918  1.0000
  C   C1049     1.0  0.7344476229906003  0.8350784609039759  0.5056239297148698  1.0000
  C   C1050     1.0  0.7210264129208663  0.8316531709799238  0.5319022065254465  1.0000
  C   C1051     1.0  0.7134284713285157  0.8485512497444401  0.5399156388606038  1.0000
  C   C1052     1.0  0.7169193256442844  0.9339113457656264  0.5371384988196197  1.0000
  C   C1053     1.0  0.7303754550134822  0.9592725664321917  0.5313355718991776  1.0000
  C   C1054     1.0  0.7531078005234515  0.9697946993249622  0.5149387954440009  1.0000
  C   C1055     1.0  0.7641009216365564  0.954904323119235  0.5113836644614925  1.0000
  C   C1056     1.0  0.7518222870470511  0.9302316361934283  0.5222680170516165  1.0000
  C   C1057     1.0  0.7268587196451395  0.9183745367610544  0.5310238878340483  1.0000
  C   C1058     1.0  0.7639417844013874  0.9970062492528347  0.9976158672175387  1.0000
  C   C1059     1.0  0.7024193571283115  0.9676904865500471  0.9270725411659761  1.0000
  C   C1060     1.0  0.7027297909814068  0.9817327938116824  0.9525886096888133  1.0000
  C   C1061     1.0  0.7220442997651615  0.9910663539146111  0.9737130847546595  1.0000
  C   C1062     1.0  0.7426751455311246  0.9873622015426324  0.970295066242679  1.0000
  C   C1063     1.0  0.74295337569208  0.9738909947909041  0.9443587495421393  1.0000
  C   C1064     1.0  0.7232638987915797  0.9643845920238439  0.9228467122679677  1.0000
  C   C1065     1.0  0.7920156865926109  0.009172260580523069  0.9850948062341024  1.0000
  C   C1066     1.0  0.8114504608785478  0.009341298286662303  0.5029039901202952  1.0000
  C   C1067     1.0  0.8347385778526354  0.016268392399532466  0.9898739618994191  1.0000
  C   C1068     1.0  0.8399160323540338  0.024931118653770668  0.9597281592855594  1.0000
  C   C1069     1.0  0.8217034616867671  0.027572121354911765  0.943193728205064  1.0000
  C   C1070     1.0  0.7987382166864673  0.020840152775888347  0.956370843288136  1.0000
  C   C1071     1.0  0.7677786378378411  0.041527662104396866  0.5039476064282565  1.0000
  C   C1072     1.0  0.7630685720569209  0.058008187852797426  0.5206297962664482  1.0000
  C   C1073     1.0  0.7575324322213213  0.054033278518116304  0.5524103175973288  1.0000
  C   C1074     1.0  0.7595788660630957  0.03522794876135564  0.567228501814329  1.0000
  C   C1075     1.0  0.7639896219649077  0.018704679969588807  0.5498283594877665  1.0000
  C   C1076     1.0  0.7654898335651915  0.020076813135819216  0.5179774465871209  1.0000
  H   H809      1.0  0.6650244669143961  0.8429653464809548  0.5107579616191354  1.0000
  H   H810      1.0  0.7143129491999503  0.9173511445428457  0.9759684166416629  1.0000
  H   H811      1.0  0.6908426964196182  0.9062971734458259  0.9291060754036368  1.0000
  H   H812      1.0  0.6384960608908017  0.8327466959554694  0.9640777279247804  1.0000
  H   H813      1.0  0.7407417817093876  0.8900671643533544  0.9808759814723889  1.0000
  H   H814      1.0  0.7535195660440077  0.8593222408596537  0.966764981549978  1.0000
  H   H815      1.0  0.7145237088513362  0.8148121812960459  0.5454253259414935  1.0000
  H   H816      1.0  0.7010155171119701  0.8433095973833081  0.5595853548179697  1.0000
  H   H817      1.0  0.697698155800343  0.9265770950107178  0.5463029442192622  1.0000
  H   H818      1.0  0.7202538712239742  0.9690269406038688  0.535820086897683  1.0000
  H   H819      1.0  0.7819508551214063  0.9615009212877567  0.9983116114228461  1.0000
  H   H820      1.0  0.761832098935967  0.9198477697200531  0.5192028902733014  1.0000
  H   H821      1.0  0.6867375211954083  0.9843263724597872  0.9554486320092888  1.0000
  H   H822      1.0  0.7195789987033437  0.0007001424298358464  0.9927666701892713  1.0000
  H   H823      1.0  0.7572351273245376  0.9687610954919806  0.9413352973747796  1.0000
  H   H824      1.0  0.7226885961839246  0.9527749963360134  0.9030997173401466  1.0000
  H   H825      1.0  0.8074857164865339  0.002933117807278452  0.5268846767548885  1.0000
  H   H826      1.0  0.8487203518554092  0.01454637958561231  0.5037958501418639  1.0000
  H   H827      1.0  0.8254122407595353  0.03366326338982421  0.9188800364128756  1.0000
  H   H828      1.0  0.7855876831823371  0.02358632751028571  0.9421874672906764  1.0000
  H   H829      1.0  0.7720755665940469  0.0443651692547036  0.9792603607003325  1.0000
  H   H830      1.0  0.7629281282432416  0.07378268017999866  0.5086403777459345  1.0000
  H   H831      1.0  0.7571627435495237  0.03136731979322767  0.5923787209513552  1.0000
  H   H832      1.0  0.7637986761218549  0.0035472495106207975  0.5631619002814278  1.0000
  C   C1077     1.0  0.8756610554095181  0.45131372835282313  0.6104774091377433  1.0000
  C   C1078     1.0  0.8896732347078538  0.452100737483607  0.5850512270306925  1.0000
  C   C1079     1.0  0.913996617085195  0.4560578095793504  0.5894617316556803  1.0000
  C   C1080     1.0  0.9238492787866304  0.45810707018435864  0.6186666452939061  1.0000
  C   C1081     1.0  0.9081113306915337  0.4542905995577449  0.6437897817705915  1.0000
  C   C1082     1.0  0.8847948825409324  0.45157280607239175  0.6397063703105821  1.0000
  H   H833      1.0  0.8820952149548104  0.4506769045669757  0.5620190587092869  1.0000
  H   H834      1.0  0.9246160168184218  0.45612832924157853  0.5687271535102582  1.0000
  H   H835      1.0  0.9154144918097632  0.45649671005072034  0.6672064771745949  1.0000
  H   H836      1.0  0.8747349368009664  0.4511228013092404  0.6602749504258116  1.0000
  C   C1083     1.0  0.963073876446428  0.4998736386964109  0.6645876306138789  1.0000
  C   C1084     1.0  0.9661619247141647  0.4800009408002158  0.6541540357175747  1.0000
  C   C1085     1.0  0.9839678534986217  0.47608220562272163  0.6697797968493933  1.0000
  C   C1086     1.0  0.9962516679148498  0.4899155470743081  0.6960462418406392  1.0000
  C   C1087     1.0  0.9917586032679295  0.508220263705116  0.7074622835879278  1.0000
  C   C1088     1.0  0.974874026058312  0.5131395683202468  0.6916443756504154  1.0000
  C   C1089     1.0  0.9528477521004408  0.46470362434714424  0.6229232923916128  1.0000
  C   C1090     1.0  0.9725057819356147  0.4844271511237603  0.5991540554607591  1.0000
  C   C1091     1.0  0.9951075436035646  0.4847886606596116  0.5906596724333422  1.0000
  C   C1092     1.0  0.010438589842632198  0.5011671648594147  0.5678819877306565  1.0000
  C   C1093     1.0  0.004113765414769138  0.5174991003763504  0.5539561304776446  1.0000
  C   C1094     1.0  0.9837226501471227  0.5187969925283944  0.5645442833148593  1.0000
  C   C1095     1.0  0.9686717406655477  0.5030930896348418  0.5875708483272288  1.0000
  C   C1096     1.0  0.9423191551574784  0.4217322321865603  0.6456547497947512  1.0000
  C   C1097     1.0  0.939350617934888  0.3983956009591006  0.6448546439586477  1.0000
  C   C1098     1.0  0.9422492424655674  0.3877331815388697  0.6176543141280627  1.0000
  C   C1099     1.0  0.9475703310065182  0.40246461692481383  0.5909725238545207  1.0000
  C   C1100     1.0  0.9504060191501729  0.4264897916045647  0.5920868819390619  1.0000
  C   C1101     1.0  0.9488680623594243  0.43708399787047425  0.6196820115854774  1.0000
  C   C1102     1.0  0.9431529361158254  0.3619968626848284  0.6180171283881459  1.0000
  C   C1103     1.0  0.025700473721495323  0.40070267201763476  0.6347812951391185  1.0000
  C   C1104     1.0  0.009030925324208967  0.39390704876431365  0.6593151502821811  1.0000
  C   C1105     1.0  0.9832443373667007  0.3809543007622944  0.6543438478111703  1.0000
  C   C1106     1.0  0.9726677153661942  0.3735087890061838  0.6247277913724255  1.0000
  C   C1107     1.0  0.9897679038807461  0.38075617117004823  0.6001820291976614  1.0000
  C   C1108     1.0  0.0159088601088261  0.39387574629572025  0.6051278833068002  1.0000
  C   C1109     1.0  0.9317004275147527  0.3451786040573021  0.5871545691600935  1.0000
  C   C1110     1.0  0.909813100483387  0.34265482080809784  0.5735824207899811  1.0000
  C   C1111     1.0  0.8986956111987808  0.3279805846374248  0.5475270337724257  1.0000
  C   C1112     1.0  0.9077667822580338  0.31306973831749296  0.5360199382533015  1.0000
  C   C1113     1.0  0.9281139070542435  0.3136567097221642  0.5505250375779134  1.0000
  C   C1114     1.0  0.9407938935030654  0.3306738840076006  0.5744861878432515  1.0000
  C   C1115     1.0  0.9326289749265463  0.32240320359577584  0.6516098999440056  1.0000
  C   C1116     1.0  0.916703446871171  0.30256490598553964  0.670531807616271  1.0000
  C   C1117     1.0  0.8931852292526392  0.2989928930106459  0.6784653927976647  1.0000
  C   C1118     1.0  0.886935059238021  0.3168135471876115  0.6710337707174155  1.0000
  C   C1119     1.0  0.9023745908241493  0.3365095984372442  0.6525080636882399  1.0000
  C   C1120     1.0  0.9261058003067534  0.34059142661115865  0.6427678782851448  1.0000
  H   H837      1.0  0.9508018456142847  0.5056163929496225  0.6525227723744594  1.0000
  H   H838      1.0  0.989094089045332  0.4623195731034897  0.6622258358551907  1.0000
  H   H839      1.0  0.008372768638030253  0.48543431835448053  0.7087652864100155  1.0000
  H   H840      1.0  0.9717367438149821  0.5281816333712465  0.6999347048404366  1.0000
  H   H841      1.0  4.122626874263533e-05  0.47124160663516484  0.6007327877816615  1.0000
  H   H842      1.0  0.02637603073695181  0.499692249131517  0.5582011040148596  1.0000
  H   H843      1.0  0.9794434563850728  0.532320581323277  0.5534504318371426  1.0000
  H   H844      1.0  0.9520386830050847  0.5044515631701959  0.5931890995206917  1.0000
  H   H845      1.0  0.9395374705106343  0.4282582062019718  0.6683542216421424  1.0000
  H   H846      1.0  0.9376998971884465  0.38963047079253826  0.6672319255364668  1.0000
  H   H847      1.0  0.9514108139627614  0.3957394616177176  0.569243124883993  1.0000
  H   H848      1.0  0.9535001581752455  0.43711962657254183  0.570876022525577  1.0000
  H   H849      1.0  0.01711009975365273  0.399706170513214  0.6824285665846092  1.0000
  H   H850      1.0  0.9712557458119127  0.376791789943275  0.6746563100092111  1.0000
  H   H851      1.0  0.9827969325606642  0.3775620463478962  0.5768837036970442  1.0000
  H   H852      1.0  0.028409505246373395  0.397918995413561  0.5856127252903449  1.0000
  H   H853      1.0  0.9010983394887222  0.3519439620156144  0.5851079605346823  1.0000
  H   H854      1.0  0.8830693120150795  0.3284018877553973  0.5368408230270805  1.0000
  H   H855      1.0  0.9358561773210033  0.30181182228635306  0.5437443332306835  1.0000
  H   H856      1.0  0.9568371095376776  0.33053151962499905  0.5855370806183585  1.0000
  H   H857      1.0  0.9501702734087158  0.3236731949647262  0.6435896969437632  1.0000
  H   H858      1.0  0.9220610550869989  0.28816218624587486  0.6770484560251778  1.0000
  H   H859      1.0  0.8692355656331695  0.314602531708288  0.6785531779725625  1.0000
  H   H860      1.0  0.8961723066851307  0.3497042332115443  0.644984220480106  1.0000
  C   C1121     1.0  0.018183696440195258  0.5319798147000646  0.9661159315866376  1.0000
  C   C1122     1.0  0.04356566047148099  0.5404030279446702  0.9608651640774545  1.0000
  C   C1123     1.0  0.05340282756127956  0.5502745626408222  0.932341986371946  1.0000
  C   C1124     1.0  0.03806804209273087  0.5499525165572108  0.9082244103960188  1.0000
  C   C1125     1.0  0.013228685010445768  0.5435469892805274  0.9149413771029639  1.0000
  C   C1126     1.0  0.003227198648791848  0.5333624748264248  0.9429229016016557  1.0000
  H   H861      1.0  0.05563532078713325  0.5394007330615167  0.9787887488564665  1.0000
  H   H862      1.0  0.07375188375744043  0.5574540467773195  0.9293652284465532  1.0000
  H   H863      1.0  0.0013774994597110163  0.5439795683757124  0.8964341142993651  1.0000
  H   H864      1.0  0.9831338155566608  0.5261372059836524  0.9466397632622247  1.0000
  C   C1127     1.0  0.008754914193107848  0.5215443760928943  0.8445451379135972  1.0000
  C   C1128     1.0  0.02790398812230185  0.547296488784324  0.8463381968051279  1.0000
  C   C1129     1.0  0.030530433119290438  0.5626096690978912  0.8212563847325832  1.0000
  C   C1130     1.0  0.015185439924231927  0.5531708651274737  0.7958593865267618  1.0000
  C   C1131     1.0  0.9961408584326366  0.5274620411554436  0.7947900883857187  1.0000
  C   C1132     1.0  0.9927925108770762  0.5122128601287186  0.8194353092958724  1.0000
  C   C1133     1.0  0.0490576609726317  0.557126287622306  0.8738177582026752  1.0000
  C   C1134     1.0  0.06425284980127935  0.5425592268158366  0.8636570911506678  1.0000
  C   C1135     1.0  0.07901164572575015  0.5496664637579307  0.8372421584699669  1.0000
  C   C1136     1.0  0.0884128401457631  0.5351758375110873  0.8248448372277429  1.0000
  C   C1137     1.0  0.08223929627535868  0.5119028299730347  0.8369036252157066  1.0000
  C   C1138     1.0  0.0666384112706912  0.5039193614117623  0.8622702721642496  1.0000
  C   C1139     1.0  0.05796304564853465  0.518875563032397  0.8758512924403355  1.0000
  C   C1140     1.0  0.05199791210659436  0.6011015791938035  0.8820849737429228  1.0000
  C   C1141     1.0  0.06252658830846118  0.6262471572097346  0.8740769112455918  1.0000
  C   C1142     1.0  0.08645933280996704  0.6391448609721343  0.8607643828608156  1.0000
  C   C1143     1.0  0.1004238746823743  0.6270876754404185  0.8603044445774412  1.0000
  C   C1144     1.0  0.09003016493873538  0.6022261301000073  0.8701405866477782  1.0000
  C   C1145     1.0  0.06458207581617843  0.5879129581579067  0.8764980076915778  1.0000
  C   C1146     1.0  0.09497342923357978  0.663842126070418  0.8413045575210912  1.0000
  C   C1147     1.0  0.03849129825596462  0.6287508587286192  0.7650645339495614  1.0000
  C   C1148     1.0  0.03502340547439145  0.6419008492306125  0.7882995887523132  1.0000
  C   C1149     1.0  0.052523717775637614  0.6531972226947396  0.8118615032488338  1.0000
  C   C1150     1.0  0.07492553901649815  0.6522456852410052  0.8120202636715216  1.0000
  C   C1151     1.0  0.07765490223892142  0.6373099033634966  0.7892498165763406  1.0000
  C   C1152     1.0  0.06020638632464526  0.6267302345974116  0.7650178397075944  1.0000
  C   C1153     1.0  0.12502655226926168  0.6792399365403867  0.8327128169991733  1.0000
  C   C1154     1.0  0.14349572486741866  0.6855129171204952  0.8559361982414335  1.0000
  C   C1155     1.0  0.16880862322320803  0.696032388097968  0.8482246441805925  1.0000
  C   C1156     1.0  0.1768730095622973  0.7001207188127971  0.817422787467097  1.0000
  C   C1157     1.0  0.15885621818846837  0.6939451470754324  0.7946383320993261  1.0000
  C   C1158     1.0  0.1335533353804698  0.6852902622215197  0.8023615597206588  1.0000
  C   C1159     1.0  0.09528881067670185  0.705805026212703  0.8429225130052459  1.0000
  C   C1160     1.0  0.09346128849042282  0.7247949959235472  0.8579417159339138  1.0000
  C   C1161     1.0  0.08938040155642825  0.723927448483212  0.8893832837623563  1.0000
  C   C1162     1.0  0.08847091291697826  0.7041803223383591  0.9056422188152468  1.0000
  C   C1163     1.0  0.09042516636894216  0.6854768075899741  0.8913607849096563  1.0000
  C   C1164     1.0  0.09274921960942566  0.6852500778517898  0.8592818406783651  1.0000
  H   H865      1.0  0.006831197529874664  0.5078832539349687  0.8624126896022488  1.0000
  H   H866      1.0  0.045030261932428296  0.5821322739696096  0.8201870865915402  1.0000
  H   H867      1.0  0.018722772707119383  0.5658962421484969  0.7772587352392292  1.0000
  H   H868      1.0  0.9783045043049595  0.4922683778348631  0.8176095644349648  1.0000
  H   H869      1.0  0.08222569966200231  0.566526429019647  0.825241738284462  1.0000
  H   H870      1.0  0.10058501903041284  0.5422657208833781  0.8050698257547416  1.0000
  H   H871      1.0  0.06081849018427227  0.48612598409292074  0.8720573852805213  1.0000
  H   H872      1.0  0.04436545252122385  0.5110091647381001  0.894867522481374  1.0000
  H   H873      1.0  0.03181471891333927  0.5904623112837787  0.8871116088906644  1.0000
  H   H874      1.0  0.05178328116362772  0.635671262923375  0.8753329863545025  1.0000
  H   H875      1.0  0.1189765345936729  0.6355969367395669  0.8501624552222207  1.0000
  H   H876      1.0  0.10200240958565768  0.5939269145914738  0.8659264313102614  1.0000
  H   H877      1.0  0.01683207729489616  0.6418505593653848  0.7887782047324744  1.0000
  H   H878      1.0  0.048304167496927855  0.6625081581008255  0.831097196227117  1.0000
  H   H879      1.0  0.09372878690481064  0.6343162127930124  0.7908210778185284  1.0000
  H   H880      1.0  0.0630646470949734  0.6167218175540995  0.7460949981504899  1.0000
  H   H881      1.0  0.1371176780899218  0.6802462433288587  0.8793813771330367  1.0000
  H   H882      1.0  0.18281273002243198  0.6994637792594423  0.8661832496410796  1.0000
  H   H883      1.0  0.1646012127613931  0.6967179065357364  0.7703316444434328  1.0000
  H   H884      1.0  0.11996650562320782  0.6818641151248528  0.7841671483382386  1.0000
  H   H885      1.0  0.09688662633535765  0.7058611848713323  0.8175091718147358  1.0000
  H   H886      1.0  0.09525227017191165  0.7405461949699041  0.8440408401003542  1.0000
  H   H887      1.0  0.08578725611050826  0.7029084236245018  0.9300422949550738  1.0000
  H   H888      1.0  0.08962292375225428  0.6706791765121696  0.9058780247371798  1.0000
  C   C1165     1.0  0.9171180880005013  0.8003188568840848  0.9641804552571075  1.0000
  C   C1166     1.0  0.9049306759611448  0.7926518265367096  0.935388785660289  1.0000
  C   C1167     1.0  0.8851121688495376  0.7677425126593183  0.9314804776076557  1.0000
  C   C1168     1.0  0.8782761275138555  0.7503341839713237  0.9553248922680765  1.0000
  C   C1169     1.0  0.8890519128308451  0.7594293039971342  0.9847189175862683  1.0000
  C   C1170     1.0  0.9076991625657571  0.783624401398143  0.9885945396695248  1.0000
  H   H889      1.0  0.9113518784271722  0.8056053784651312  0.9156791461260415  1.0000
  H   H890      1.0  0.8756650255996052  0.7620282981713195  0.908885133919851  1.0000
  H   H891      1.0  0.8821575199489285  0.747184664357877  0.5048814912675954  1.0000
  H   H892      1.0  0.9160368156203014  0.7896909552032958  0.5116801728979827  1.0000
  C   C1171     1.0  0.8780561733912282  0.7025914152705671  0.9807148863376028  1.0000
  C   C1172     1.0  0.8556276162067439  0.702707385897225  0.9759684166416629  1.0000
  C   C1173     1.0  0.834929166946078  0.6865869555533599  0.9941604933119849  1.0000
  C   C1174     1.0  0.8379027299732533  0.6733774054795543  0.5179083858032517  1.0000
  C   C1175     1.0  0.8608912653426887  0.6752531629478309  0.5238026233138602  1.0000
  C   C1176     1.0  0.8804402296448243  0.6886053008220732  0.5040736808815672  1.0000
  C   C1177     1.0  0.8553992291993543  0.7210190567167669  0.9503682984832851  1.0000
  C   C1178     1.0  0.8565174760696451  0.7073194947600229  0.9192372473639228  1.0000
  C   C1179     1.0  0.8366692794260164  0.6836577189525243  0.9096275723671255  1.0000
  C   C1180     1.0  0.8372832100360573  0.6730935710223803  0.8814289196432872  1.0000
  C   C1181     1.0  0.858155860608607  0.6853715135502432  0.8623216358304133  1.0000
  C   C1182     1.0  0.8791633935937806  0.7070050357247549  0.8730239560892371  1.0000
  C   C1183     1.0  0.8784532240443428  0.7177682059104911  0.900998476451634  1.0000
  C   C1184     1.0  0.8227417638357959  0.7303509178617695  0.9781793889987979  1.0000
  C   C1185     1.0  0.8007322211105959  0.7316372297275784  0.9796058980908879  1.0000
  C   C1186     1.0  0.7857652159300463  0.7265572947117324  0.9532143125311705  1.0000
  C   C1187     1.0  0.79341877981288  0.7207172479865296  0.9258047924965737  1.0000
  C   C1188     1.0  0.8162257114400416  0.7213455658075567  0.9240771055437967  1.0000
  C   C1189     1.0  0.8301984700172821  0.7240388066106856  0.9508399103271513  1.0000
  C   C1190     1.0  0.7578680478121388  0.723775059693513  0.9563801821365294  1.0000
  C   C1191     1.0  0.7253426577047961  0.6474456150218221  0.9950360103488649  1.0000
  C   C1192     1.0  0.7333000759476762  0.6682462234889023  0.5139943577059775  1.0000
  C   C1193     1.0  0.7421072143012404  0.6919535163896169  0.5022596095811513  1.0000
  C   C1194     1.0  0.7432680497114638  0.6961153066508189  0.9708273806011021  1.0000
  C   C1195     1.0  0.73489199196626  0.6750294186684432  0.9512554890806572  1.0000
  C   C1196     1.0  0.727370080128964  0.6513254787519602  0.9631298348128513  1.0000
  C   C1197     1.0  0.7472520383551774  0.7283895285126822  0.9252187797598885  1.0000
  C   C1198     1.0  0.7625240787507411  0.7476061278028651  0.9044982098870565  1.0000
  C   C1199     1.0  0.7534089236591269  0.7517166313200049  0.877635012483473  1.0000
  C   C1200     1.0  0.7284257634448119  0.7353407878711997  0.8688705032662772  1.0000
  C   C1201     1.0  0.712271877354289  0.7163442297581154  0.888808944586163  1.0000
  C   C1202     1.0  0.7216465092364825  0.7132065056225197  0.9170729692487549  1.0000
  C   C1203     1.0  0.7352168164302716  0.7404941252190196  0.9904342928030225  1.0000
  C   C1204     1.0  0.7338930526907722  0.7589638699556531  0.5073586208039419  1.0000
  C   C1205     1.0  0.7543764777441996  0.7830451727846064  0.5081991171593468  1.0000
  C   C1206     1.0  0.7767821151092981  0.7886374496234017  0.9936095012567748  1.0000
  C   C1207     1.0  0.7784087202175036  0.769849475228496  0.9780930046511588  1.0000
  C   C1208     1.0  0.7574498433974495  0.7452516051046371  0.9768579419511332  1.0000
  H   H893      1.0  0.8947761142616644  0.7139941714398546  0.9665688657337168  1.0000
  H   H894      1.0  0.8161899805434021  0.683742486164149  0.9891782176941116  1.0000
  H   H895      1.0  0.8214972552411162  0.6629202602658664  0.5328248847467134  1.0000
  H   H896      1.0  0.8983764483237157  0.6893637737663165  0.5079810965725952  1.0000
  H   H897      1.0  0.8199813004507389  0.6728157865452153  0.9247985315821861  1.0000
  H   H898      1.0  0.8199279708376863  0.6565503054356696  0.8741539567448372  1.0000
  H   H899      1.0  0.8962454962338907  0.7171811486878409  0.8579136993887336  1.0000
  H   H900      1.0  0.8956699587781984  0.7348593053535857  0.9083761666824114  1.0000
  H   H901      1.0  0.834192402067137  0.7341980502625379  0.9999412404674924  1.0000
  H   H902      1.0  0.7949643789935118  0.7352662292915443  0.5023413245045936  1.0000
  H   H903      1.0  0.7834088065370693  0.7166857452973127  0.9032608124749326  1.0000
  H   H904      1.0  0.8222718850098284  0.7178223279635365  0.9016662041117612  1.0000
  H   H905      1.0  0.7329779054323591  0.66556282935861  0.5392663554260535  1.0000
  H   H906      1.0  0.7506514401377326  0.7077440793777984  0.5184089714242583  1.0000
  H   H907      1.0  0.7366065805942641  0.6772910604680247  0.9267199996391258  1.0000
  H   H908      1.0  0.7218539033773447  0.6353501273730371  0.9469245981382229  1.0000
  H   H909      1.0  0.782492175254412  0.7589314814792163  0.9109676971115768  1.0000
  H   H910      1.0  0.7658237931858748  0.7664132540916736  0.8615558502621553  1.0000
  H   H911      1.0  0.6931401701752565  0.7028044524402354  0.8809456342389294  1.0000
  H   H912      1.0  0.708082516032685  0.6986797311350996  0.9324773996736502  1.0000
  H   H913      1.0  0.7177130020865383  0.7224640864324593  0.9882886923846413  1.0000
  H   H914      1.0  0.7159482434366206  0.7537713074548066  0.5188103836463351  1.0000
  H   H915      1.0  0.7927941321169532  0.8078123619012759  0.9932779721388095  1.0000
  H   H916      1.0  0.7966803317543569  0.774476621507746  0.9682031642025599  1.0000
  C   C1209     1.0  0.8685382184322962  0.6531993891936524  0.7901743625672861  1.0000
  C   C1210     1.0  0.852928190797848  0.627623237720076  0.7845103510166956  1.0000
  C   C1211     1.0  0.8499391124461023  0.6183981758832245  0.7546517179909327  1.0000
  C   C1212     1.0  0.8612464567622207  0.6347049873357982  0.7294435979938673  1.0000
  C   C1213     1.0  0.877396213507637  0.6604022374665547  0.7360183807340231  1.0000
  C   C1214     1.0  0.8806667605199289  0.6694802192564684  0.7657882947000489  1.0000
  H   H917      1.0  0.8438012248825857  0.6154879127424754  0.8038300936305192  1.0000
  H   H918      1.0  0.8381209956351324  0.598476506441864  0.7511146291619366  1.0000
  H   H919      1.0  0.8886737327429228  0.6738830298180121  0.7179645190199233  1.0000
  H   H920      1.0  0.8938351486592293  0.6891587515395221  0.7698857144326484  1.0000
  C   C1215     1.0  0.8619114185731098  0.6634293394701066  0.66503799657765  1.0000
  C   C1216     1.0  0.8662272839277818  0.6430403146410224  0.6660433236071983  1.0000
  C   C1217     1.0  0.8759701087910955  0.6375075691861666  0.6397486285995622  1.0000
  C   C1218     1.0  0.8810383716868945  0.6512095652486463  0.6136007869829122  1.0000
  C   C1219     1.0  0.8749069112176348  0.6699728399791401  0.611401488186269  1.0000
  C   C1220     1.0  0.8649357987180534  0.6754820600820213  0.6368598893202772  1.0000
  C   C1221     1.0  0.8559740046634372  0.6235834270558364  0.6946575550845423  1.0000
  C   C1222     1.0  0.8254625529962499  0.6092670514094944  0.687360412421158  1.0000
  C   C1223     1.0  0.8142429601483563  0.5939674134780603  0.6610395686380204  1.0000
  C   C1224     1.0  0.789893973517934  0.5865396684908952  0.6518723215838599  1.0000
  C   C1225     1.0  0.775900842999781  0.5946107070463047  0.6676713183533758  1.0000
  C   C1226     1.0  0.7854616814775047  0.6085263504030396  0.6947658857259056  1.0000
  C   C1227     1.0  0.8100040715719932  0.6158303882665436  0.7040939944436423  1.0000
  C   C1228     1.0  0.8957002665882894  0.618151954536963  0.6983319249849212  1.0000
  C   C1229     1.0  0.9088035052190467  0.6060031329673129  0.6905837159441361  1.0000
  C   C1230     1.0  0.8965970111086203  0.5826650349433149  0.6755413993656946  1.0000
  C   C1231     1.0  0.8700722711141632  0.570832326339467  0.6724586455110368  1.0000
  C   C1232     1.0  0.8567221545141539  0.5813980053728285  0.6846206277737474  1.0000
  C   C1233     1.0  0.8695192842279221  0.606437513889391  0.6954950163142195  1.0000
  C   C1234     1.0  0.9140878408836881  0.5735942927083392  0.6577357175476491  1.0000
  C   C1235     1.0  0.9385127509032793  0.6328128682289698  0.5868620297341706  1.0000
  C   C1236     1.0  0.9546629775070126  0.6358832060176727  0.6110750954349202  1.0000
  C   C1237     1.0  0.9483758241721456  0.6169108190610444  0.6324860396752334  1.0000
  C   C1238     1.0  0.9248490418196588  0.5946709392819004  0.6304763195009762  1.0000
  C   C1239     1.0  0.9086441472669927  0.5921777094040301  0.6056837782574167  1.0000
  C   C1240     1.0  0.9154052646930574  0.6111320664042691  0.5843687906843454  1.0000
  C   C1241     1.0  0.9002660059441472  0.5449424509961606  0.6446547926030292  1.0000
  C   C1242     1.0  0.8805843873481423  0.5249485176404005  0.6599630328894726  1.0000
  C   C1243     1.0  0.8649438911718172  0.5021599294745961  0.6453820554216644  1.0000
  C   C1244     1.0  0.8698687112115708  0.49872427531519836  0.6146149859184343  1.0000
  C   C1245     1.0  0.8912465245470148  0.5171987058912795  0.6003907524592536  1.0000
  C   C1246     1.0  0.906771222347595  0.5391817513709778  0.6158722283833943  1.0000
  C   C1247     1.0  0.9576362271070145  0.576415477563146  0.6670486506367467  1.0000
  C   C1248     1.0  0.9780524398611646  0.5807789593045468  0.686135622454365  1.0000
  C   C1249     1.0  0.9756946706337398  0.5816024102079326  0.7180789199127423  1.0000
  C   C1250     1.0  0.9531665902908479  0.5769557891163413  0.7303959270587832  1.0000
  C   C1251     1.0  0.9336446798122551  0.5733444808541166  0.711530519419298  1.0000
  C   C1252     1.0  0.935469119154199  0.5741895521436995  0.6791674407256377  1.0000
  H   H921      1.0  0.8539664045971594  0.6681297429097581  0.6844018652501322  1.0000
  H   H922      1.0  0.8778594084613724  0.6206807847777617  0.6385065617632415  1.0000
  H   H923      1.0  0.8874331172758226  0.6458830785632071  0.5929507254154504  1.0000
  H   H924      1.0  0.8601302064115831  0.6903230685728217  0.6358370519499912  1.0000
  H   H925      1.0  0.8255454137086053  0.5899293781329811  0.6458401259353601  1.0000
  H   H926      1.0  0.7829157679769838  0.5756883638587316  0.6302939784860951  1.0000
  H   H927      1.0  0.7753092787982808  0.61598756892792  0.7065293326334283  1.0000
  H   H928      1.0  0.8171879250982401  0.6277726816926855  0.7248369775526183  1.0000
  H   H929      1.0  0.9063973493525195  0.6379106325159516  0.704755418381104  1.0000
  H   H930      1.0  0.9293308907760889  0.6160277807952943  0.6918969914994565  1.0000
  H   H931      1.0  0.8596634822189373  0.5521670905022594  0.6610650169998924  1.0000
  H   H932      1.0  0.8365976443070695  0.5708757600154706  0.6838634806402534  1.0000
  H   H933      1.0  0.9728628473796428  0.6528487963245755  0.6134805493098473  1.0000
  H   H934      1.0  0.9612766464490887  0.6198133240286443  0.6507189738072764  1.0000
  H   H935      1.0  0.8896316013522497  0.5763560814433064  0.6035668947978452  1.0000
  H   H936      1.0  0.9023502898065243  0.6081312767782019  0.5652281204884652  1.0000
  H   H937      1.0  0.8764159614976601  0.5286012287358819  0.6835534308735929  1.0000
  H   H938      1.0  0.8492690410798075  0.48783163307675503  0.6584125505849601  1.0000
  H   H939      1.0  0.8959702963273191  0.5146148107410563  0.5765977014649966  1.0000
  H   H940      1.0  0.9228720582958797  0.5527661119624524  0.60306563211033  1.0000
  H   H941      1.0  0.960521629526648  0.5768898633786896  0.64244989049735  1.0000
  H   H942      1.0  0.9958067592950918  0.5848251433705247  0.6762481167178643  1.0000
  H   H943      1.0  0.9518141661949674  0.5781418417934157  0.7554782060737475  1.0000
  H   H944      1.0  0.9158799943926615  0.568920265817337  0.7223502756966687  1.0000
  C   C1253     1.0  0.8056155829400812  0.14014752614185289  0.8208688225242576  1.0000
  C   C1254     1.0  0.7944630925814651  0.15396340932242647  0.8131175783577447  1.0000
  C   C1255     1.0  0.7889151747878588  0.15544980208360126  0.7823694200225113  1.0000
  C   C1256     1.0  0.7946588376874134  0.1435858921062682  0.7580043645641593  1.0000
  C   C1257     1.0  0.8038639040616207  0.12797842288637096  0.7675626758947929  1.0000
  C   C1258     1.0  0.810528291975326  0.12730959167248765  0.7984065574260586  1.0000
  H   H945      1.0  0.7894149891269252  0.16411339259906868  0.8306045719743655  1.0000
  H   H946      1.0  0.780395377452992  0.16696716187373511  0.7769015242881822  1.0000
  H   H947      1.0  0.809330864448936  0.11867047525741455  0.7502647939581382  1.0000
  H   H948      1.0  0.8176562103845392  0.11457479311322029  0.804614556895564  1.0000
  C   C1259     1.0  0.8229505542494465  0.13870328604845328  0.6963049279411361  1.0000
  C   C1260     1.0  0.7974049963838082  0.13134671046936022  0.6990773985579235  1.0000
  C   C1261     1.0  0.7803543499926834  0.11312459411900733  0.678652870179162  1.0000
  C   C1262     1.0  0.7882664886774803  0.10476777422543887  0.6542028312004302  1.0000
  C   C1263     1.0  0.8134214626476567  0.11434218309132405  0.6493758139370972  1.0000
  C   C1264     1.0  0.8307277257147317  0.13014243024559052  0.6709665310089832  1.0000
  C   C1265     1.0  0.7904984729224406  0.1473602516988593  0.72244716624875  1.0000
  C   C1266     1.0  0.8095173731719905  0.17710215036297333  0.712999520271578  1.0000
  C   C1267     1.0  0.8112970765172118  0.1833657618100194  0.6814741362788048  1.0000
  C   C1268     1.0  0.8292850209740364  0.20655255260428781  0.6707468346005286  1.0000
  C   C1269     1.0  0.8456808492825635  0.22532725388366776  0.6914078693148527  1.0000
  C   C1270     1.0  0.8435110654076301  0.21990846923366164  0.7226404804104932  1.0000
  C   C1271     1.0  0.8261183012837814  0.19616139536532345  0.7332351704415835  1.0000
  C   C1272     1.0  0.7416387332384414  0.1140708542253621  0.7286878516876324  1.0000
  C   C1273     1.0  0.7173708120327213  0.10238615083738427  0.7169867415931355  1.0000
  C   C1274     1.0  0.7099921941102443  0.11446955477234459  0.6953343881218531  1.0000
  C   C1275     1.0  0.72770511062611  0.1388810743901122  0.6883697084612734  1.0000
  C   C1276     1.0  0.7518887396721714  0.15115131554887376  0.7003941761813913  1.0000
  C   C1277     1.0  0.7602601487333109  0.1381762951711061  0.7188262612554234  1.0000
  C   C1278     1.0  0.684028883085914  0.09965206331686684  0.6758596206246993  1.0000
  C   C1279     1.0  0.7127787609733717  0.06917241744295063  0.603219723108821  1.0000
  C   C1280     1.0  0.7020964894109998  0.05585641520468708  0.6299008129687335  1.0000
  C   C1281     1.0  0.693404730318975  0.06555443685419438  0.6525412166000364  1.0000
  C   C1282     1.0  0.6932226821534921  0.08793245545886841  0.6487141565284256  1.0000
  C   C1283     1.0  0.7040244565729166  0.10155914241790144  0.6210111631830664  1.0000
  C   C1284     1.0  0.7137723079757418  0.0922231486056664  0.5990139727348581  1.0000
  C   C1285     1.0  0.671550644803767  0.11566132644070752  0.6654101496861266  1.0000
  C   C1286     1.0  0.6747223692995683  0.13670265873419674  0.6820550126488736  1.0000
  C   C1287     1.0  0.6671185923361399  0.15279547216112738  0.6700636978405523  1.0000
  C   C1288     1.0  0.6553549770505748  0.1472485026009396  0.6411991852262654  1.0000
  C   C1289     1.0  0.6495046226353226  0.12506159574366432  0.6259897032615822  1.0000
  C   C1290     1.0  0.6568964380427826  0.10922714857555663  0.6387580102562336  1.0000
  C   C1291     1.0  0.6415329632411961  0.05678130691927661  0.6800396891655802  1.0000
  C   C1292     1.0  0.623161190201993  0.03726730455166456  0.6971718065432525  1.0000
  C   C1293     1.0  0.6235605035471032  0.04026275359879223  0.729090822995807  1.0000
  C   C1294     1.0  0.6396925998139722  0.06319867703884308  0.7431766080275558  1.0000
  C   C1295     1.0  0.6580686667553955  0.08197271815663136  0.7255623726015749  1.0000
  C   C1296     1.0  0.6604300318863794  0.07855170956155469  0.6940741105311654  1.0000
  H   H949      1.0  0.8366863979798433  0.15353466674171204  0.7122398049547759  1.0000
  H   H950      1.0  0.7604471767323651  0.10765952861732395  0.6777381299790297  1.0000
  H   H951      1.0  0.7739198680799954  0.09275051490984794  0.6373104887552582  1.0000
  H   H952      1.0  0.8506468993721076  0.13742780953611897  0.6677943576809587  1.0000
  H   H953      1.0  0.799897724512882  0.16875565845346382  0.6643859114885816  1.0000
  H   H954      1.0  0.8307153530478775  0.2092716903690626  0.6458226155946225  1.0000
  H   H955      1.0  0.8565605243509591  0.2333916323014097  0.7400621020883605  1.0000
  H   H956      1.0  0.8278970310250117  0.19316264707506894  0.7569654176803946  1.0000
  H   H957      1.0  0.747227012004875  0.10400769299989136  0.7451867951442327  1.0000
  H   H958      1.0  0.7046682271337619  0.08349146244068976  0.7251832153568032  1.0000
  H   H959      1.0  0.7230539064086288  0.14860432476156601  0.6717320831060312  1.0000
  H   H960      1.0  0.7657121603158853  0.16995815407378564  0.6918225141835193  1.0000
  H   H961      1.0  0.6997537557474013  0.03724707346736099  0.6340953567246241  1.0000
  H   H962      1.0  0.6871133831361663  0.05635659415566971  0.6751078433290315  1.0000
  H   H963      1.0  0.7046636314204732  0.11981044151570217  0.6179636634810938  1.0000
  H   H964      1.0  0.7224610576072424  0.10308345797974215  0.5781628924557287  1.0000
  H   H965      1.0  0.6843786131787369  0.1411558639487772  0.7040860564225079  1.0000
  H   H966      1.0  0.6719803713436616  0.16989489513408768  0.6835144411815505  1.0000
  H   H967      1.0  0.6409031346177908  0.12110034662307674  0.6029699089142978  1.0000
  H   H968      1.0  0.6514325928060584  0.09186668087163566  0.6250425105632827  1.0000
  H   H969      1.0  0.6409463360191745  0.05412017899945226  0.6549746870201437  1.0000
  H   H970      1.0  0.6095723728055397  0.019655902235489194  0.6854057914524216  1.0000
  H   H971      1.0  0.6385641983457234  0.0653417860468932  0.767529989925416  1.0000
  H   H972      1.0  0.672152779053187  0.09921563782015926  0.7369709432701488  1.0000
  C   C1297     1.0  0.888376279911344  0.07606176746471846  0.959436320273266  1.0000
  C   C1298     1.0  0.8841293095066185  0.08665534319984114  0.9337498177672493  1.0000
  C   C1299     1.0  0.8783047055535252  0.10507756006354338  0.9381157293911586  1.0000
  C   C1300     1.0  0.8758861068231456  0.11322658489980855  0.9678716350845946  1.0000
  C   C1301     1.0  0.8838055968301524  0.1046470359420284  0.99336202177435  1.0000
  C   C1302     1.0  0.8899062776410969  0.08629334311156663  0.9888420191519498  1.0000
  H   H973      1.0  0.8837617876707052  0.07959174437667785  0.9110003830809535  1.0000
  H   H974      1.0  0.8735245821564215  0.11224070827021024  0.9176146224555715  1.0000
  H   H975      1.0  0.8846234291311108  0.11237003143330469  0.5157555711244867  1.0000
  H   H976      1.0  0.892981062365013  0.07818472089892321  0.5094435187077659  1.0000
  C   C1303     1.0  0.835975808701083  0.10748087837945723  0.5176080484389203  1.0000
  C   C1304     1.0  0.8525862541868798  0.13109657450769197  0.5049888880241193  1.0000
  C   C1305     1.0  0.8552822096430951  0.15227822387793327  0.5203836475699195  1.0000
  C   C1306     1.0  0.8432746032253247  0.1501594013272912  0.5485613112319936  1.0000
  C   C1307     1.0  0.8284179069934673  0.1270711860807795  0.5618255110763338  1.0000
  C   C1308     1.0  0.8247441540890407  0.10582372896821687  0.5454731875395098  1.0000
  C   C1309     1.0  0.8664743052841147  0.13309780698593063  0.9731667621236461  1.0000
  C   C1310     1.0  0.8446140754423594  0.13075217726508495  0.9513722246855746  1.0000
  C   C1311     1.0  0.8421014447393494  0.15157526370001226  0.9455891428179684  1.0000
  C   C1312     1.0  0.8245995147405648  0.14992519078081515  0.9243362585867132  1.0000
  C   C1313     1.0  0.8098474000851581  0.1278817346434918  0.9078228399151029  1.0000
  C   C1314     1.0  0.8101529586722954  0.10670107954338579  0.9155624105211242  1.0000
  C   C1315     1.0  0.8276459718717365  0.10780615532166483  0.9371304808856562  1.0000
  C   C1316     1.0  0.9096324489125767  0.1687936677756754  0.993623509529365  1.0000
  C   C1317     1.0  0.9304573635950251  0.1920173034663059  0.9900210487616151  1.0000
  C   C1318     1.0  0.9360015017390166  0.20473361634736384  0.9617873753563017  1.0000
  C   C1319     1.0  0.9196412165807999  0.19262676083155653  0.9370114105686406  1.0000
  C   C1320     1.0  0.8987978645271678  0.16916738844496804  0.93999283791823  1.0000
  C   C1321     1.0  0.8925979476375567  0.15765937192488283  0.968835871181212  1.0000
  C   C1322     1.0  0.9568246279959957  0.23385590219076444  0.9605406390957841  1.0000
  C   C1323     1.0  0.9067456348822741  0.2598314263095905  0.9988415910691709  1.0000
  C   C1324     1.0  0.9218518803955137  0.2554299305691666  0.5189944004829189  1.0000
  C   C1325     1.0  0.9384838937198474  0.2484000198569305  0.506875335399584  1.0000
  C   C1326     1.0  0.9405313228869957  0.2459225071102069  0.975088230180586  1.0000
  C   C1327     1.0  0.9242247188862169  0.2496662481152539  0.9560019587765972  1.0000
  C   C1328     1.0  0.908497458098559  0.25797510611063723  0.9672786182116143  1.0000
  C   C1329     1.0  0.9688911613844075  0.24425280316445105  0.9273900620113514  1.0000
  C   C1330     1.0  0.9743918964769828  0.2302414928434905  0.9063169506116691  1.0000
  C   C1331     1.0  0.9861507012475352  0.24034963869589168  0.8786739593672376  1.0000
  C   C1332     1.0  0.9946548078044825  0.26583947077326264  0.8724402780646503  1.0000
  C   C1333     1.0  0.9900642754090342  0.2799385978079962  0.8933709720263334  1.0000
  C   C1334     1.0  0.9777923666606726  0.2694206315884411  0.9202808636718841  1.0000
  C   C1335     1.0  0.9962164276354136  0.2640631578172644  0.9942352040991318  1.0000
  C   C1336     1.0  0.01878019050314068  0.2707314484777642  0.5087361009419666  1.0000
  C   C1337     1.0  0.027180825314981606  0.2537830130369987  0.5107182715134635  1.0000
  C   C1338     1.0  0.012736143173883385  0.2296692820933654  0.9972913422358685  1.0000
  C   C1339     1.0  0.9909362678997315  0.22379643270944757  0.9814479859364841  1.0000
  C   C1340     1.0  0.9817715531582986  0.24042006985081055  0.9796432534844615  1.0000
  H   H977      1.0  0.8324403361626447  0.09015808777594878  0.5057803554254591  1.0000
  H   H978      1.0  0.8674508718075795  0.17088596222896565  0.5114759271126113  1.0000
  H   H979      1.0  0.845109102028804  0.16699145645823096  0.5599701153717772  1.0000
  H   H980      1.0  0.8123856651855904  0.08757708332679742  0.5551398295115066  1.0000
  H   H981      1.0  0.8530973618788118  0.16879061886413269  0.9578323730617013  1.0000
  H   H982      1.0  0.8227424064621228  0.16649155595214435  0.9207478060915535  1.0000
  H   H983      1.0  0.79788770036761  0.08882235086644164  0.9038538293479126  1.0000
  H   H984      1.0  0.8285635447362658  0.09108577625236293  0.9419726737776283  1.0000
  H   H985      1.0  0.9049630648548598  0.15946021738653934  0.5160904440517606  1.0000
  H   H986      1.0  0.9426464976386058  0.20070197330414602  0.5100855645348114  1.0000
  H   H987      1.0  0.9224818618643446  0.20077454170707973  0.9141288972927388  1.0000
  H   H988      1.0  0.8861358351267001  0.15967879822180706  0.9192582597728078  1.0000
  H   H989      1.0  0.9202325075943301  0.25623195031828666  0.543835387002519  1.0000
  H   H990      1.0  0.9502248819370704  0.2448267844882204  0.522692491058217  1.0000
  H   H991      1.0  0.9242555738384285  0.24738082817891452  0.9307240308877913  1.0000
  H   H992      1.0  0.8960034607195344  0.26092720698926175  0.9514399313364266  1.0000
  H   H993      1.0  0.9689876101827875  0.21138173042663128  0.9125506319142561  1.0000
  H   H994      1.0  0.9891666189564972  0.22806050247119472  0.862372999496577  1.0000
  H   H995      1.0  0.9945632983968445  0.29888084752606164  0.8887459073595075  1.0000
  H   H996      1.0  0.9757006293168744  0.28150437083796753  0.9371188073251645  1.0000
  H   H997      1.0  0.9896686474172459  0.2778769452227209  0.9953021675280765  1.0000
  H   H998      1.0  0.02882123649263013  0.2893818786378878  0.5201745040601495  1.0000
  H   H999      1.0  0.018656153771883295  0.21570406267099515  0.9979847517290775  1.0000
  H   H1000     1.0  0.9800187530655403  0.20537497440865998  0.9697487436116657  1.0000
  C   C1341     1.0  0.24428402211456368  0.4665618346318245  0.809912018646714  1.0000
  C   C1342     1.0  0.23476126807053055  0.45476228722153605  0.7815849567574665  1.0000
  C   C1343     1.0  0.21481758063127948  0.43028936502847076  0.7805039850559318  1.0000
  C   C1344     1.0  0.20439606976897626  0.416454288848658  0.8075866453967601  1.0000
  C   C1345     1.0  0.21362649265138137  0.42952998583254215  0.8355588310470587  1.0000
  C   C1346     1.0  0.2342271711219331  0.45331709752996163  0.8369806707149521  1.0000
  H   H1001     1.0  0.24307086838767386  0.4645660853928863  0.7601709773914255  1.0000
  H   H1002     1.0  0.20750820095786615  0.42154562426774334  0.7577895710511113  1.0000
  H   H1003     1.0  0.20427110896255532  0.42049539503621325  0.8569984922461815  1.0000
  H   H1004     1.0  0.2437866127656175  0.4604652392200919  0.8588592577885642  1.0000
  C   C1347     1.0  0.2034668394345234  0.3732310717180915  0.8505780339757265  1.0000
  C   C1348     1.0  0.18164186497883922  0.37301768464590707  0.8396469119312646  1.0000
  C   C1349     1.0  0.15953624860133858  0.35896313370885863  0.8553782020499284  1.0000
  C   C1350     1.0  0.15871452241435927  0.34726414994168153  0.8824725359512485  1.0000
  C   C1351     1.0  0.18018818022293975  0.34692391608448353  0.8919584712068334  1.0000
  C   C1352     1.0  0.20273091161882165  0.3599985507421116  0.8756341642151894  1.0000
  C   C1353     1.0  0.18373917806166631  0.3871435871943992  0.807264455127188  1.0000
  C   C1354     1.0  0.18970721657472958  0.3702818341852788  0.7844192972448601  1.0000
  C   C1355     1.0  0.17157253596711036  0.34507060856091526  0.778603529407877  1.0000
  C   C1356     1.0  0.17569210267061594  0.3312300813045162  0.7565685166236756  1.0000
  C   C1357     1.0  0.19829912524590257  0.34076536944996594  0.7417407600870721  1.0000
  C   C1358     1.0  0.21790441868523408  0.36417838393325674  0.7505846495156118  1.0000
  C   C1359     1.0  0.2137581371679393  0.37897601271008446  0.7716857774604742  1.0000
  C   C1360     1.0  0.14784846010243813  0.39748244813857403  0.8172430146355242  1.0000
  C   C1361     1.0  0.1269951148549355  0.39880356214025775  0.8086372658410163  1.0000
  C   C1362     1.0  0.11591936793255604  0.3908721119741893  0.7794136745060037  1.0000
  C   C1363     1.0  0.1267515323785716  0.38147000669289044  0.759031637887432  1.0000
  C   C1364     1.0  0.14872458280121836  0.38132844214524175  0.766353295027849  1.0000
  C   C1365     1.0  0.1585996798143464  0.3876019210719486  0.7966742010490848  1.0000
  C   C1366     1.0  0.08839587726880403  0.387560872574602  0.771604062537032  1.0000
  C   C1367     1.0  0.048582828155111946  0.31637371193110264  0.8232875842581454  1.0000
  C   C1368     1.0  0.053655519168423926  0.3387836830696959  0.8366468068848885  1.0000
  C   C1369     1.0  0.0648849723610746  0.36042647572004566  0.8200890286834096  1.0000
  C   C1370     1.0  0.07114340187767033  0.3607593634594312  0.7885330599621481  1.0000
  C   C1371     1.0  0.06497062635621842  0.3371985708023332  0.774959043822357  1.0000
  C   C1372     1.0  0.054155040721675485  0.3156051914064023  0.7924740539841582  1.0000
  C   C1373     1.0  0.08081001630369217  0.3862492774660472  0.7354510456941247  1.0000
  C   C1374     1.0  0.09925738644607116  0.403468706218365  0.7157033503526741  1.0000
  C   C1375     1.0  0.09362573198118006  0.40625019795469725  0.6856061097504599  1.0000
  C   C1376     1.0  0.06959799680053055  0.3901732482494054  0.6740653943771194  1.0000
  C   C1377     1.0  0.051006758625580684  0.3719753286605795  0.6927916531755431  1.0000
  C   C1378     1.0  0.05675858972247328  0.370106283223749  0.7231893712248146  1.0000
  C   C1379     1.0  0.06109816219800811  0.40712000727680336  0.7886754774001472  1.0000
  C   C1380     1.0  0.05749446229167022  0.4271621117015844  0.7951519687609625  1.0000
  C   C1381     1.0  0.07726799894916792  0.451127112323783  0.7955628780902717  1.0000
  C   C1382     1.0  0.10143270789900637  0.45530621314444114  0.7913907475705251  1.0000
  C   C1383     1.0  0.10541166937052106  0.4355344979314898  0.7848021900289891  1.0000
  C   C1384     1.0  0.0850898343203349  0.41076219292248295  0.7828293583058856  1.0000
  H   H1005     1.0  0.22127488116226196  0.38307178767905187  0.8389628412864488  1.0000
  H   H1006     1.0  0.14138993502288907  0.3558928535528892  0.8469802426321734  1.0000
  H   H1007     1.0  0.1413525287034134  0.33737658260148845  0.8966255606914295  1.0000
  H   H1008     1.0  0.21999725612255766  0.3602379622870781  0.8828904494168527  1.0000
  H   H1009     1.0  0.15307775912519084  0.33857737895656126  0.7890933908657515  1.0000
  H   H1010     1.0  0.16003111785890242  0.31325449238451364  0.7492188429380785  1.0000
  H   H1011     1.0  0.23612578144204213  0.372746402407346  0.7389087543117769  1.0000
  H   H1012     1.0  0.2291996802752779  0.3975001278474402  0.778636215377254  1.0000
  H   H1013     1.0  0.15630157992276214  0.40504486299761605  0.8395395151747407  1.0000
  H   H1014     1.0  0.11829538107176328  0.40446768463680277  0.8260168627011134  1.0000
  H   H1015     1.0  0.11851051853032317  0.37511686022032437  0.7361467898994322  1.0000
  H   H1016     1.0  0.15537646780021855  0.37319605157234503  0.7483993589915586  1.0000
  H   H1017     1.0  0.04869070519564608  0.33879628680663626  0.8605776058929479  1.0000
  H   H1018     1.0  0.07016702734130181  0.378246668519467  0.8318489735227849  1.0000
  H   H1019     1.0  0.07030430211830567  0.3367723222524321  0.7506733685753488  1.0000
  H   H1020     1.0  0.04983966285794  0.2978725496289675  0.7803545634816376  1.0000
  H   H1021     1.0  0.11832242071654256  0.41557379881030476  0.7247788432213695  1.0000
  H   H1022     1.0  0.1076988218010939  0.4213090291029561  0.6717692050283949  1.0000
  H   H1023     1.0  0.03175578188354367  0.35906350067565024  0.6839255839820695  1.0000
  H   H1024     1.0  0.04136773723481544  0.356640228584737  0.7377694148077836  1.0000
  H   H1025     1.0  0.0449024695930744  0.3882318777284911  0.7884443409024108  1.0000
  H   H1026     1.0  0.03842456619986157  0.4240668445682199  0.797199511271213  1.0000
  H   H1027     1.0  0.1175879024617343  0.47397771094010294  0.7916032063714749  1.0000
  H   H1028     1.0  0.12413773626252764  0.43893208992668925  0.7818464445124815  1.0000
  C   C1385     1.0  0.18747417896814875  0.3267618642329799  0.653451520847182  1.0000
  C   C1386     1.0  0.1719411088253042  0.3003651643534241  0.6508016226155579  1.0000
  C   C1387     1.0  0.16988622445401336  0.28923882267470896  0.6229643833245437  1.0000
  C   C1388     1.0  0.17909317259441776  0.30353882222558154  0.5956666959994578  1.0000
  C   C1389     1.0  0.1954998543812451  0.32932904549472153  0.5999497253438758  1.0000
  C   C1390     1.0  0.19941044338075767  0.3411053250936654  0.6282282252214776  1.0000
  H   H1029     1.0  0.16169474310344775  0.2886049457608654  0.6704195079643404  1.0000
  H   H1030     1.0  0.1564590316488619  0.2689259632283992  0.6209441569458439  1.0000
  H   H1031     1.0  0.20481689550403334  0.3417285362354503  0.5808459435991494  1.0000
  H   H1032     1.0  0.21079989093712972  0.3614661463774573  0.6302981809678723  1.0000
  C   C1391     1.0  0.17046796330664382  0.32550584815387873  0.5297325585724524  1.0000
  C   C1392     1.0  0.17911409875075068  0.3085420815765856  0.5328433289722903  1.0000
  C   C1393     1.0  0.19443478226460353  0.30824147831747967  0.5091563491196692  1.0000
  C   C1394     1.0  0.20052913953700877  0.32370855557397304  0.9838947642155519  1.0000
  C   C1395     1.0  0.19038562355741978  0.3385576768730808  0.9802572827663268  1.0000
  C   C1396     1.0  0.17671350428177612  0.34098019686107833  0.5042417801526482  1.0000
  C   C1397     1.0  0.17064415650538353  0.28951990620045304  0.5622116724574004  1.0000
  C   C1398     1.0  0.1397702993799743  0.2743010704365366  0.5579015604526416  1.0000
  C   C1399     1.0  0.12930522119823606  0.2625145459108051  0.5295476493742632  1.0000
  C   C1400     1.0  0.1036859811208903  0.2521309207337596  0.5226972538708977  1.0000
  C   C1401     1.0  0.08793047967281077  0.2545670846235976  0.5436696224435363  1.0000
  C   C1402     1.0  0.09816195786571504  0.26782401749545126  0.571157121862218  1.0000
  C   C1403     1.0  0.12324385692354727  0.27726505542005825  0.578302274768  1.0000
  C   C1404     1.0  0.20857282335715915  0.28235901945880026  0.5672446113278077  1.0000
  C   C1405     1.0  0.22158706744761988  0.2709615657790757  0.5571609897750458  1.0000
  C   C1406     1.0  0.2105202584751241  0.24934101498502306  0.5382362804482627  1.0000
  C   C1407     1.0  0.18484152314763608  0.23825688777623483  0.5333004656011467  1.0000
  C   C1408     1.0  0.17121200710058398  0.24784734379837126  0.5461021589788044  1.0000
  C   C1409     1.0  0.18272402934638857  0.2715245623805078  0.5614514901981786  1.0000
  C   C1410     1.0  0.2278506106099364  0.24228948884797336  0.5176694046728649  1.0000
  C   C1411     1.0  0.2546693975691572  0.3041078564284657  0.9489394546790966  1.0000
  C   C1412     1.0  0.2693449003558958  0.306408843699222  0.974826742425571  1.0000
  C   C1413     1.0  0.2608158973669188  0.28784935024159775  0.9967076642112817  1.0000
  C   C1414     1.0  0.238165696079292  0.26543369858127797  0.9932546250178259  1.0000
  C   C1415     1.0  0.2227163751540087  0.26406550277691176  0.9687564909698682  1.0000
  C   C1416     1.0  0.2310659992791831  0.2827218213365124  0.9463035647200626  1.0000
  C   C1417     1.0  0.21333801272421155  0.21420807551356613  0.5031421307543267  1.0000
  C   C1418     1.0  0.19530087216611844  0.1930517552465095  0.5201292106454416  1.0000
  C   C1419     1.0  0.1813122978747379  0.16900078969012938  0.5061165539676211  1.0000
  C   C1420     1.0  0.1861991717892734  0.16537332308482752  0.9756112056906159  1.0000
  C   C1421     1.0  0.20495176955449473  0.1856897583311339  0.9599522916470007  1.0000
  C   C1422     1.0  0.21843085024196096  0.20920210624872573  0.9733138489858421  1.0000
  C   C1423     1.0  0.27080435437803896  0.24430272558451305  0.5192606743977354  1.0000
  C   C1424     1.0  0.29267166235313746  0.2475550297227623  0.5337291187424033  1.0000
  C   C1425     1.0  0.2936788442889257  0.24768464152373565  0.5653983210004346  1.0000
  C   C1426     1.0  0.27295878207235097  0.24358513201291446  0.5830788622500086  1.0000
  C   C1427     1.0  0.2517163777057817  0.24139606890049062  0.5684199053981157  1.0000
  C   C1428     1.0  0.2504833792889753  0.24199291994435587  0.5359167439785546  1.0000
  H   H1033     1.0  0.1591508121781725  0.3270742128313894  0.5480264286902622  1.0000
  H   H1034     1.0  0.20325836415973786  0.29661901857234274  0.5092614111640948  1.0000
  H   H1035     1.0  0.213090266146706  0.3229911761607321  0.9662116547826697  1.0000
  H   H1036     1.0  0.16966598013253262  0.3538598546462958  0.5026425023652803  1.0000
  H   H1037     1.0  0.1420167647952661  0.2633915045695194  0.5112342428871982  1.0000
  H   H1038     1.0  0.09722610727906965  0.24376112503919375  0.9992058061565132  1.0000
  H   H1039     1.0  0.08650992280521404  0.27127559753571256  0.5877125653515984  1.0000
  H   H1040     1.0  0.13063698765609663  0.28968242445181974  0.5979439741801856  1.0000
  H   H1041     1.0  0.21944057340909726  0.30119583506159037  0.5769943690505059  1.0000
  H   H1042     1.0  0.24126828042723553  0.28127614001126866  0.56260787310049  1.0000
  H   H1043     1.0  0.17513255179311168  0.2229928477688797  0.517407893570729  1.0000
  H   H1044     1.0  0.15095255983928021  0.23710101137877032  0.5428641467696066  1.0000
  H   H1045     1.0  0.2879208436631004  0.32368589988588126  0.9781933972713878  1.0000
  H   H1046     1.0  0.2734230667131088  0.2917257768817349  0.5162655474591367  1.0000
  H   H1047     1.0  0.20354480281325113  0.24755501446113445  0.9672459322422376  1.0000
  H   H1048     1.0  0.21882764424419052  0.2801694215431765  0.9271939461950902  1.0000
  H   H1049     1.0  0.1918269639889258  0.19541356489456693  0.5441183541088387  1.0000
  H   H1050     1.0  0.1667589118864518  0.1534750333610878  0.5186596961564999  1.0000
  H   H1051     1.0  0.2107627628432114  0.1823417410206128  0.937424654610048  1.0000
  H   H1052     1.0  0.2326228190527094  0.2230641512141182  0.9584604106161568  1.0000
  H   H1053     1.0  0.2719061286093284  0.24562058157686728  0.9939410303747402  1.0000
  H   H1054     1.0  0.3090817219168163  0.25094683093468245  0.5204782734512655  1.0000
  H   H1055     1.0  0.27381359302788955  0.24202924287666974  0.6081312569501142  1.0000
  H   H1056     1.0  0.2358253415060232  0.2386027168947424  0.5832322528348701  1.0000
  C   C1429     1.0  0.2168813286935099  0.7525309339446298  0.7823764241588064  1.0000
  C   C1430     1.0  0.21016370522942923  0.7603936959951814  0.7555669251334847  1.0000
  C   C1431     1.0  0.2099601668098723  0.7828226420789608  0.7563537231106278  1.0000
  C   C1432     1.0  0.21408089439058287  0.7965969920874185  0.7833686768006038  1.0000
  C   C1433     1.0  0.2216038585015783  0.7888379282746347  0.8095337952867816  1.0000
  C   C1434     1.0  0.2240900732879527  0.7676129425075054  0.8089594561105882  1.0000
  H   H1057     1.0  0.20648710016532643  0.7504490373979356  0.7333262242134189  1.0000
  H   H1058     1.0  0.20744204180278292  0.7899388931751585  0.7346525741564899  1.0000
  H   H1059     1.0  0.22594921321065398  0.7996059295031342  0.8309454399407245  1.0000
  H   H1060     1.0  0.2303986615445074  0.7619096636969513  0.8299368443142383  1.0000
  C   C1435     1.0  0.17431002921016353  0.7952227389395191  0.8262620074714399  1.0000
  C   C1436     1.0  0.19337866987658753  0.8182317261498067  0.8157161129232052  1.0000
  C   C1437     1.0  0.19513167834326078  0.839652642681038  0.8290893438225383  1.0000
  C   C1438     1.0  0.17970891600525724  0.838073646324905  0.8529664444523358  1.0000
  C   C1439     1.0  0.16255348074201595  0.8152111786700262  0.8648781455781035  1.0000
  C   C1440     1.0  0.15938885802428138  0.79371392845736  0.8507041084290373  1.0000
  C   C1441     1.0  0.20962108641289406  0.8201168718599903  0.7859812196386544  1.0000
  C   C1442     1.0  0.19241786154546267  0.8229656993331472  0.759972526863066  1.0000
  C   C1443     1.0  0.19660776240228933  0.8462571347631536  0.750143388929024  1.0000
  C   C1444     1.0  0.18080396294136283  0.8482204142027947  0.72881836209393  1.0000
  C   C1445     1.0  0.1601514527810343  0.8272328053829031  0.7166297641132982  1.0000
  C   C1446     1.0  0.15476118962538485  0.8034070783424805  0.7265719021129002  1.0000
  C   C1447     1.0  0.17028151083299342  0.8018176059020996  0.7488266113055561  1.0000
  C   C1448     1.0  0.2512133273781271  0.8530206985034819  0.8157254517715986  1.0000
  C   C1449     1.0  0.2747630002754749  0.8743223127285844  0.8178920645988648  1.0000
  C   C1450     1.0  0.28712390576631114  0.8869149398078381  0.790926139862954  1.0000
  C   C1451     1.0  0.275414499007305  0.8764215110881459  0.762393623309052  1.0000
  C   C1452     1.0  0.25219574170890335  0.8546135054378758  0.761424717788238  1.0000
  C   C1453     1.0  0.2387195293127391  0.8428470489775958  0.7880357662852  1.0000
  C   C1454     1.0  0.31228286953326095  0.9140850690694484  0.7942157492095252  1.0000
  C   C1455     1.0  0.27633510613687323  0.9608151011166848  0.8055110863413293  1.0000
  C   C1456     1.0  0.28235354853916794  0.9513615089165731  0.831010811879478  1.0000
  C   C1457     1.0  0.29404212694725307  0.9372539299169204  0.8278986406523812  1.0000
  C   C1458     1.0  0.29919641358891086  0.9308915986411415  0.798759098952909  1.0000
  C   C1459     1.0  0.29249815629328085  0.94075906256633  0.7730655923105975  1.0000
  C   C1460     1.0  0.2819632175916639  0.9557719055921473  0.7767100778961176  1.0000
  C   C1461     1.0  0.33134116153640447  0.9221035161816052  0.7655011251119523  1.0000
  C   C1462     1.0  0.33734500130408607  0.9055858639521296  0.7514625012645902  1.0000
  C   C1463     1.0  0.35707609504998317  0.9135770185829121  0.731057350996245  1.0000
  C   C1464     1.0  0.3711578645627553  0.9388738722812461  0.723368443642758  1.0000
  C   C1465     1.0  0.3668195643758642  0.9560532565189346  0.738841047660925  1.0000
  C   C1466     1.0  0.3469426025291282  0.947555249294282  0.7590643238568088  1.0000
  C   C1467     1.0  0.3464374783802546  0.938378236242032  0.8376437289508827  1.0000
  C   C1468     1.0  0.36693221386415775  0.9419673449096314  0.8554248962918954  1.0000
  C   C1469     1.0  0.3731700088804179  0.9234731522515722  0.857761943102341  1.0000
  C   C1470     1.0  0.3572062970509668  0.900526351262555  0.8434991868935375  1.0000
  C   C1471     1.0  0.33642265949053585  0.8965533671419291  0.8256829988710498  1.0000
  C   C1472     1.0  0.330972925976315  0.9155696232971672  0.8216252692441222  1.0000
  H   H1061     1.0  0.17124796874426682  0.77772045189067  0.8162997909477919  1.0000
  H   H1062     1.0  0.20681448576577002  0.8585359801286888  0.820649359587013  1.0000
  H   H1063     1.0  0.18021893291688523  0.855059383538982  0.8619644248793661  1.0000
  H   H1064     1.0  0.1453234804294175  0.775014773188915  0.8589549809845966  1.0000
  H   H1065     1.0  0.21295212239769146  0.8634872406220908  0.7600378988018197  1.0000
  H   H1066     1.0  0.18593081848104892  0.8670893223152688  0.7221688685666271  1.0000
  H   H1067     1.0  0.13781925935609718  0.7874858202597795  0.7163647742901358  1.0000
  H   H1068     1.0  0.16496160538939636  0.7825756261647454  0.7580487240940279  1.0000
  H   H1069     1.0  0.24244279859526804  0.8436601690580614  0.8372281501973768  1.0000
  H   H1070     1.0  0.2837763849380481  0.8818735180122905  0.8405878009068986  1.0000
  H   H1071     1.0  0.2840011162625184  0.8854498803770778  0.7410917101237317  1.0000
  H   H1072     1.0  0.24430123524801997  0.8482465467590078  0.73829705974201  1.0000
  H   H1073     1.0  0.2777195860968402  0.9547038188407477  0.8543182427572787  1.0000
  H   H1074     1.0  0.2987519153508351  0.9303372712627609  0.8482900161193463  1.0000
  H   H1075     1.0  0.2946450478826712  0.9362911158123877  0.7494032851938479  1.0000
  H   H1076     1.0  0.2774995901736673  0.9634346213300172  0.7568790333327559  1.0000
  H   H1077     1.0  0.3277749262795576  0.8858015213585201  0.7575117403114079  1.0000
  H   H1078     1.0  0.36013813534688516  0.8989043279375392  0.7202044418070778  1.0000
  H   H1079     1.0  0.37801132339955296  0.9761330857124444  0.7353880084674693  1.0000
  H   H1080     1.0  0.34426982561548913  0.961307777632794  0.7716997857330643  1.0000
  H   H1081     1.0  0.34519646803962667  0.9553001081308412  0.8328062054831071  1.0000
  H   H1082     1.0  0.3792594503950402  0.9605795113916833  0.8654945095720672  1.0000
  H   H1083     1.0  0.3620763827990196  0.886284990429213  0.8463942298954882  1.0000
  H   H1084     1.0  0.32566885624920044  0.8786466259884603  0.8130498717068927  1.0000
  C   C1473     1.0  0.14007408885984893  0.8240950029185011  0.6281254978891504  1.0000
  C   C1474     1.0  0.12881469196439593  0.8381882263873339  0.6223690317394652  1.0000
  C   C1475     1.0  0.12028099066791458  0.839280513301789  0.5927118843677894  1.0000
  C   C1476     1.0  0.12351956959086205  0.8265338618032798  0.5684168702723879  1.0000
  C   C1477     1.0  0.13310092164767193  0.8108434039714114  0.5746972458169419  1.0000
  C   C1478     1.0  0.14130621462642226  0.8096154444011168  0.6038862834128991  1.0000
  H   H1085     1.0  0.12850724161288776  0.8506652706976996  0.639997508909246  1.0000
  H   H1086     1.0  0.11144617907099032  0.8502739307274617  0.5893095084268679  1.0000
  H   H1087     1.0  0.13442883353788457  0.7986256502333838  0.5569861198388796  1.0000
  H   H1088     1.0  0.15049988949231363  0.7987107369650734  0.6070453823531727  1.0000
  C   C1479     1.0  0.14756772850299413  0.8223449232296478  0.5020728326132836  1.0000
  C   C1480     1.0  0.12308120799804487  0.8183196708773294  0.505107958341135  1.0000
  C   C1481     1.0  0.10715000047190763  0.807552251506305  0.979183315201087  1.0000
  C   C1482     1.0  0.11472797320979819  0.8005387740497769  0.9527193535663209  1.0000
  C   C1483     1.0  0.13926950320770318  0.8045230125465594  0.9509029475538068  1.0000
  C   C1484     1.0  0.15587140898392587  0.8155614669454981  0.9762088919877927  1.0000
  C   C1485     1.0  0.11553295386732973  0.8302354076586209  0.5336691166414756  1.0000
  C   C1486     1.0  0.12968531804504285  0.8597879301272356  0.5233942821678593  1.0000
  C   C1487     1.0  0.12318569810841119  0.868015788657918  0.9964438417441683  1.0000
  C   C1488     1.0  0.1366819466946865  0.8925693267778855  0.9873267910001223  1.0000
  C   C1489     1.0  0.15813166245420393  0.9094815752912231  0.5032378539503589  1.0000
  C   C1490     1.0  0.16607785039832532  0.9021759933630137  0.529189271067167  1.0000
  C   C1491     1.0  0.15234522984273696  0.8775982068783844  0.5389212849779177  1.0000
  C   C1492     1.0  0.07247291176477984  0.7899242955492106  0.540809600123061  1.0000
  C   C1493     1.0  0.04721977788395823  0.7751542576924592  0.5335238975489586  1.0000
  C   C1494     1.0  0.03442067495719652  0.7856976145137508  0.5188753768601452  1.0000
  C   C1495     1.0  0.0463943947823223  0.81160463731185  0.516971302408338  1.0000
  C   C1496     1.0  0.07095502146311143  0.8261198295300919  0.5272617327587715  1.0000
  C   C1497     1.0  0.08533181571776075  0.8155046986281379  0.5352812353453845  1.0000
  C   C1498     1.0  0.008685639669128949  0.7667873168533426  0.5002237406313925  1.0000
  C   C1499     1.0  0.04264300734379334  0.7431714738017223  0.925127725988053  1.0000
  C   C1500     1.0  0.03036189189981567  0.7274401202437993  0.9495908393545355  1.0000
  C   C1501     1.0  0.019791091122614186  0.7339498593800288  0.9729472991864014  1.0000
  C   C1502     1.0  0.02001436400446256  0.7572964582178706  0.9724616790699454  1.0000
  C   C1503     1.0  0.03342102306511924  0.7735101704865324  0.9481993509439205  1.0000
  C   C1504     1.0  0.04370048377624182  0.7662140605372415  0.9242382006785826  1.0000
  C   C1505     1.0  0.9937098063721438  0.78091187520363  0.9888490232882446  1.0000
  C   C1506     1.0  0.9882378019825122  0.7950706088458582  0.5094738699650444  1.0000
  C   C1507     1.0  0.9777493528580836  0.8089530869926738  0.99895599196199  1.0000
  C   C1508     1.0  0.9720391934201089  0.8083897404136352  0.9677735771764641  1.0000
  C   C1509     1.0  0.9731219759446148  0.7909846974635477  0.9481386484293636  1.0000
  C   C1510     1.0  0.9838086227732907  0.7774730563663731  0.9590977870190056  1.0000
  C   C1511     1.0  0.9676544366093353  0.722988546805591  0.505093950068545  1.0000
  C   C1512     1.0  0.9512049886094329  0.7007782323871451  0.5197706689084983  1.0000
  C   C1513     1.0  0.9553340192768862  0.698937771583902  0.5507503372954039  1.0000
  C   C1514     1.0  0.9737790064879484  0.719308842695682  0.5668007825579119  1.0000
  C   C1515     1.0  0.9886285147234225  0.7419731053784526  0.5519571499790397  1.0000
  C   C1516     1.0  0.9877026465781812  0.7433937697639754  0.5200054709042292  1.0000
  H   H1089     1.0  0.1607433634761976  0.8306318394260456  0.5218211064617508  1.0000
  H   H1090     1.0  0.08882985272989712  0.805737613926549  0.9778968888348978  1.0000
  H   H1091     1.0  0.10192563417595718  0.7929280688026674  0.9324353748558798  1.0000
  H   H1092     1.0  0.17529139015177272  0.8191681329385986  0.9753707303444861  1.0000
  H   H1093     1.0  0.10832985104984841  0.8550205444617901  0.9811141221064202  1.0000
  H   H1094     1.0  0.1309470739745169  0.8980917979134142  0.9668770477306986  1.0000
  H   H1095     1.0  0.1839708234303611  0.9148905991983848  0.5401743249611006  1.0000
  H   H1096     1.0  0.16004266686292756  0.8707673728401135  0.556684708506983  1.0000
  H   H1097     1.0  0.0822858814579993  0.7794010195505727  0.5458537456115402  1.0000
  H   H1098     1.0  0.038021432271440926  0.7551068474438801  0.5358483369140731  1.0000
  H   H1099     1.0  0.03858108866372912  0.8216944577620452  0.5053881237929367  1.0000
  H   H1100     1.0  0.07982985021235714  0.8461811636926979  0.5251913100699571  1.0000
  H   H1101     1.0  0.029669609442613168  0.7094716758708651  0.9521006548602589  1.0000
  H   H1102     1.0  0.010542271350731117  0.7205378650930836  0.9910459873727894  1.0000
  H   H1103     1.0  0.03652045681351471  0.7926043990659019  0.9475829869499569  1.0000
  H   H1104     1.0  0.054463013865080394  0.7787942658516224  0.9057402767233772  1.0000
  H   H1105     1.0  0.9924696053760157  0.795877922339391  0.5342808112112427  1.0000
  H   H1106     1.0  0.9752573257778067  0.8217997125451655  0.5151917848469778  1.0000
  H   H1107     1.0  0.9680048949443211  0.7896058137725013  0.9242825602084511  1.0000
  H   H1108     1.0  0.9855787621395371  0.7648870798342905  0.9427314552095913  1.0000
  H   H1109     1.0  0.9648753193776938  0.7233587053270387  0.9807055474892095  1.0000
  H   H1110     1.0  0.9358780575857439  0.6847103665224853  0.5072302116385328  1.0000
  H   H1111     1.0  0.9761893837054748  0.7177133698129042  0.5915011026735866  1.0000
  H   H1112     1.0  0.002306336309907132  0.7580099438014399  0.565759500962049  1.0000
  C   C1517     1.0  0.6038258410039183  0.14474898753895332  0.6420805390433915  1.0000
  C   C1518     1.0  0.5903974494479644  0.1306807016100271  0.6166629953711045  1.0000
  C   C1519     1.0  0.5706155735341722  0.1062324662196662  0.6202871689613689  1.0000
  C   C1520     1.0  0.5639261187040965  0.09620146236505792  0.6501072792375093  1.0000
  C   C1521     1.0  0.5760358765349735  0.11210973561313074  0.6756782134946578  1.0000
  C   C1522     1.0  0.5962637677558644  0.13561383400282495  0.67194570926303  1.0000
  H   H1113     1.0  0.5959022065026021  0.13793545182458672  0.5933135396755336  1.0000
  H   H1114     1.0  0.5603990368302447  0.09553099456215111  0.5998927583686762  1.0000
  H   H1115     1.0  0.5701522474105215  0.10493047371606921  0.6990008200010978  1.0000
  H   H1116     1.0  0.606320416583801  0.14654986205983683  0.6924237025488437  1.0000
  C   C1523     1.0  0.5607703305378745  0.05637742665166505  0.6987594107701286  1.0000
  C   C1524     1.0  0.5390216166562598  0.054627936768726564  0.6864279284090781  1.0000
  C   C1525     1.0  0.516261765714437  0.03986832746365353  0.7016357760752925  1.0000
  C   C1526     1.0  0.5157007045817301  0.028387994527655433  0.7289322960443293  1.0000
  C   C1527     1.0  0.5381100339607202  0.03241648255423809  0.7424691902617565  1.0000
  C   C1528     1.0  0.5605487753613809  0.04583688050397315  0.7268135448150792  1.0000
  C   C1529     1.0  0.540290377770686  0.06834153402746175  0.653805930143711  1.0000
  C   C1530     1.0  0.5400316059912469  0.04782812761746076  0.6303142904813508  1.0000
  C   C1531     1.0  0.5179961931938863  0.024316417860170515  0.6255309323342568  1.0000
  C   C1532     1.0  0.5174663972351599  0.006686373553579372  0.6045612486805313  1.0000
  C   C1533     1.0  0.5395318237101767  0.011619796470397157  0.5889980578329485  1.0000
  C   C1534     1.0  0.5621913674974633  0.033324898191703235  0.5963290538217588  1.0000
  C   C1535     1.0  0.5619229681275376  0.05088008054776225  0.6161120033158946  1.0000
  C   C1536     1.0  0.5116551249925045  0.08565333896334859  0.6715537111017175  1.0000
  C   C1537     1.0  0.488524096275837  0.0846478807736396  0.6700363817090016  1.0000
  C   C1538     1.0  0.47204495003999064  0.07315601589261225  0.6449576047621848  1.0000
  C   C1539     1.0  0.48090338869813953  0.06552297028624589  0.6202610201858675  1.0000
  C   C1540     1.0  0.5037759332256951  0.06682156129025954  0.6213765456264577  1.0000
  C   C1541     1.0  0.5182197981132465  0.07387377517647734  0.648698047014947  1.0000
  C   C1542     1.0  0.44315122639734206  0.06542537771029194  0.646279518752269  1.0000
  C   C1543     1.0  0.4229540895906215  0.996110751862854  0.6955909729814616  1.0000
  C   C1544     1.0  0.4283546498807721  0.017458540394051578  0.712797567675071  1.0000
  C   C1545     1.0  0.432338809635411  0.03897837151774937  0.6977821002857605  1.0000
  C   C1546     1.0  0.432566547760473  0.0399526742346037  0.6650695151909776  1.0000
  C   C1547     1.0  0.4268946043537406  0.01859498206780217  0.6481743710912877  1.0000
  C   C1548     1.0  0.4220401382603638  0.9969531665973098  0.6635328076878455  1.0000
  C   C1549     1.0  0.4272229207998305  0.06191827863777493  0.6148211409967184  1.0000
  C   C1550     1.0  0.43724288272113343  0.07661548914652204  0.5881725036349729  1.0000
  C   C1551     1.0  0.42176219492139505  0.07366689099290669  0.5633535801447022  1.0000
  C   C1552     1.0  0.39615872083319387  0.056470941251879535  0.5638188882659028  1.0000
  C   C1553     1.0  0.38568557925086205  0.04180245382656296  0.5893300538933335  1.0000
  C   C1554     1.0  0.4009786187198434  0.045296527166380086  0.6148150707452626  1.0000
  C   C1555     1.0  0.4202537895010596  0.08338788567675617  0.6808117784565038  1.0000
  C   C1556     1.0  0.41800096745083976  0.10333763773757748  0.6914137060950986  1.0000
  C   C1557     1.0  0.4355075429445818  0.12783603967706575  0.6845557227774134  1.0000
  C   C1558     1.0  0.4565988616312777  0.13286263445823757  0.6664157101868847  1.0000
  C   C1559     1.0  0.45862720587526795  0.11301641521251182  0.6546004326707786  1.0000
  C   C1560     1.0  0.4406448475618201  0.08775239896785374  0.6619265257641825  1.0000
  H   H1117     1.0  0.5793381245999855  0.06704331348141675  0.6871652304897361  1.0000
  H   H1118     1.0  0.498571208882899  0.03735500824869012  0.6922371590521857  1.0000
  H   H1119     1.0  0.4982646178803586  0.01663839573639137  0.7415890038006796  1.0000
  H   H1120     1.0  0.5781298096019574  0.04807790003949856  0.7355420994659602  1.0000
  H   H1121     1.0  0.5001436818734892  0.020935304254024366  0.6352445020194307  1.0000
  H   H1122     1.0  0.4995998859674774  0.98987832120386  0.5983413421793243  1.0000
  H   H1123     1.0  0.579356566566683  0.03804115147770567  0.583473895537049  1.0000
  H   H1124     1.0  0.5803475599662634  0.0677955880956131  0.6208453986240838  1.0000
  H   H1125     1.0  0.5243186660971242  0.09533267751215714  0.69071982965947  1.0000
  H   H1126     1.0  0.4822195080538939  0.09052834118098156  0.690090858220175  1.0000
  H   H1127     1.0  0.46871968273209796  0.05604733080074913  0.5997209235582377  1.0000
  H   H1128     1.0  0.5078868765993481  0.05884844576129684  0.6004871760689153  1.0000
  H   H1129     1.0  0.42782067625456727  0.016360467233046717  0.7380285678507  1.0000
  H   H1130     1.0  0.4361905663726029  0.055365395592096425  0.7113824986722628  1.0000
  H   H1131     1.0  0.4277719792415776  0.01855917317606503  0.6227346476540664  1.0000
  H   H1132     1.0  0.419919786603341  0.981049391205861  0.6506986618120207  1.0000
  H   H1133     1.0  0.4569874814618263  0.09070663240779675  0.5860549197617719  1.0000
  H   H1134     1.0  0.4305350187698738  0.08560199946194993  0.5430334133967367  1.0000
  H   H1135     1.0  0.36628397080002384  0.027537130528469986  0.5892497397971503  1.0000
  H   H1136     1.0  0.3920883107105471  0.03438245606689737  0.6357583721522769  1.0000
  H   H1137     1.0  0.40538063576348565  0.06426953105380805  0.6872934061839354  1.0000
  H   H1138     1.0  0.40162458036871496  0.09993915604477673  0.7049657759411652  1.0000
  H   H1139     1.0  0.4712011544115767  0.1521768670136037  0.6615849573841943  1.0000
  H   H1140     1.0  0.47455650247642417  0.1180889017183878  0.6391595807371493  1.0000
  C   C1561     1.0  0.5299582139720775  0.990977955111316  0.5012253321215835  1.0000
  C   C1562     1.0  0.5141521368991142  0.9661677587295118  0.9912607808858375  1.0000
  C   C1563     1.0  0.5141955646276751  0.959055939626038  0.9610262592122404  1.0000
  C   C1564     1.0  0.5295028144930536  0.9769394552066291  0.9393297796822994  1.0000
  C   C1565     1.0  0.5466700390213871  0.000952974942690865  0.949560488097257  1.0000
  C   C1566     1.0  0.5463714964931273  0.008138408734419619  0.9799420966330499  1.0000
  H   H1141     1.0  0.499998136955857  0.952340899790876  0.5064060582678162  1.0000
  H   H1142     1.0  0.5013792936877401  0.9397787565642263  0.9545264207304416  1.0000
  H   H1143     1.0  0.5599580366218626  0.01615151358847203  0.9349872151793733  1.0000
  H   H1144     1.0  0.5590688612765903  0.027940996103711018  0.9861804473598338  1.0000
  C   C1567     1.0  0.535521001578644  0.013203831618703128  0.87910821581753  1.0000
  C   C1568     1.0  0.540371445278322  0.993287777723658  0.8792389596950374  1.0000
  C   C1569     1.0  0.5539100176432017  0.9913651386892017  0.8539750400788217  1.0000
  C   C1570     1.0  0.5601943315676653  0.00655425232567042  0.8288792197336871  1.0000
  C   C1571     1.0  0.5539461282884338  0.02540094958058685  0.8283118846937888  1.0000
  C   C1572     1.0  0.5431121093103892  0.029639035325899295  0.854171155895083  1.0000
  C   C1573     1.0  0.524565698193728  0.9700417661262355  0.9031487462942118  1.0000
  C   C1574     1.0  0.4951862997878339  0.9607977990919122  0.8927265914871897  1.0000
  C   C1575     1.0  0.48665546615595956  0.9520533815702609  0.8621348588625455  1.0000
  C   C1576     1.0  0.46296096209575116  0.9469652564218781  0.8518737991903094  1.0000
  C   C1577     1.0  0.4479540608351661  0.9523406102660219  0.8703787272818098  1.0000
  C   C1578     1.0  0.45628931446094945  0.9615128959688924  0.9000856040211801  1.0000
  C   C1579     1.0  0.47972545700544045  0.966470253122918  0.9109420152784949  1.0000
  C   C1580     1.0  0.5583894714876393  0.9555555091238641  0.9066181284723559  1.0000
  C   C1581     1.0  0.5695361587166046  0.9430688904841916  0.8926005170338788  1.0000
  C   C1582     1.0  0.5564378875533919  0.9248563724981872  0.8698627559080749  1.0000
  C   C1583     1.0  0.5306309447738761  0.916470610565308  0.8657279807819018  1.0000
  C   C1584     1.0  0.5190863133549166  0.927235980124498  0.8813518741440418  1.0000
  C   C1585     1.0  0.5336003686040731  0.9494086476994633  0.8989042396994165  1.0000
  C   C1586     1.0  0.5711603834307611  0.9170925228379403  0.8445007783837286  1.0000
  C   C1587     1.0  0.5986961959200848  0.9785197445872111  0.777298425344901  1.0000
  C   C1588     1.0  0.6109763891574873  0.9820969977705715  0.8051281935572004  1.0000
  C   C1589     1.0  0.6012430914543794  0.9630263207175045  0.8263927513489473  1.0000
  C   C1590     1.0  0.5799705481145083  0.9399834547822883  0.8203972106803914  1.0000
  C   C1591     1.0  0.5659400810260258  0.9381763034422989  0.7931954800225474  1.0000
  C   C1592     1.0  0.5761720778564906  0.9573386177723379  0.7717908395048998  1.0000
  C   C1593     1.0  0.5538935639236037  0.8889186561033946  0.829276120790406  1.0000
  C   C1594     1.0  0.5363883242274645  0.8690022751099777  0.8474121643703676  1.0000
  C   C1595     1.0  0.5210745968531412  0.8456021109440351  0.8349051116595213  1.0000
  C   C1596     1.0  0.522175997478631  0.8409055995562971  0.8037413745707821  1.0000
  C   C1597     1.0  0.5408160407372438  0.8593951495128824  0.7860816122588834  1.0000
  C   C1598     1.0  0.557220766574752  0.8831366877928934  0.7983598631840916  1.0000
  C   C1599     1.0  0.6160147523911232  0.9210447597732025  0.8408072638441432  1.0000
  C   C1600     1.0  0.6375535887289504  0.9238649326162859  0.8547805157527516  1.0000
  C   C1601     1.0  0.638009107245083  0.9203768783124084  0.8865652862596511  1.0000
  C   C1602     1.0  0.6158497143766121  0.9112502585366005  0.9031534157184086  1.0000
  C   C1603     1.0  0.5945528734644164  0.907417250509192  0.8887132213901306  1.0000
  C   C1604     1.0  0.5945387588806585  0.9149295331315029  0.8583619641116162  1.0000
  H   H1145     1.0  0.5231624752785327  0.014551460197212568  0.896870705461756  1.0000
  H   H1146     1.0  0.5593746258192459  0.9772848291799997  0.8530271469668929  1.0000
  H   H1147     1.0  0.5688238199970096  0.0038516687250329524  0.8081749928455435  1.0000
  H   H1148     1.0  0.5368381376761173  0.04347751696670648  0.8537345647326919  1.0000
  H   H1149     1.0  0.49889029396354606  0.9493985421575561  0.8470339410104354  1.0000
  H   H1150     1.0  0.45725783254840824  0.941551658212485  0.8280083721210035  1.0000
  H   H1151     1.0  0.4442682424055531  0.9656175305301977  0.9141569138379192  1.0000
  H   H1152     1.0  0.48450367373804215  0.9745260054733096  0.9339692807044939  1.0000
  H   H1153     1.0  0.5708461589722588  0.9730515067544846  0.9199493345539187  1.0000
  H   H1154     1.0  0.5893905311827734  0.9501731036367848  0.896548515192184  1.0000
  H   H1155     1.0  0.5207640077053984  0.9047640152437831  0.8453926384052973  1.0000
  H   H1156     1.0  0.49901204174761676  0.9201454705812093  0.8768738963394118  1.0000
  H   H1157     1.0  0.6298328011027686  0.9989630641324317  0.8093586918794056  1.0000
  H   H1158     1.0  0.6122573086824061  0.9652717217474409  0.8478464208206602  1.0000
  H   H1159     1.0  0.5485261972528825  0.9217314706858074  0.786462170330914  1.0000
  H   H1160     1.0  0.566581516414269  0.9542372011338566  0.7497931821142719  1.0000
  H   H1161     1.0  0.5340168539414006  0.8726291141961822  0.8718355876311783  1.0000
  H   H1162     1.0  0.507181876905442  0.831509162383147  0.8500223724963198  1.0000
  H   H1163     1.0  0.541785761503323  0.8554920429817806  0.761371019409976  1.0000
  H   H1164     1.0  0.5721297965862635  0.8974815026077764  0.7845103510166956  1.0000
  H   H1165     1.0  0.6171039487086002  0.924686804040162  0.81570910878691  1.0000
  H   H1166     1.0  0.6544161791145601  0.9290225883828916  0.8407792472989629  1.0000
  H   H1167     1.0  0.6158369908609181  0.9075485262201992  0.9274064049960399  1.0000
  H   H1168     1.0  0.5781513923597751  0.9021399277265678  0.9021378159556275  1.0000
  C   C1605     1.0  0.34978950589544544  0.20873795209505794  0.8145604304345234  1.0000
  C   C1606     1.0  0.37486981995127205  0.22052707575202538  0.8062231735313253  1.0000
  C   C1607     1.0  0.3817520263134656  0.22401549076716074  0.775617432634091  1.0000
  C   C1608     1.0  0.3637524153768649  0.21513622280916136  0.7518780800180959  1.0000
  C   C1609     1.0  0.338023062843567  0.20329629729322848  0.7606425892352917  1.0000
  C   C1610     1.0  0.331436171070902  0.20060873826859177  0.7912109747389524  1.0000
  H   H1169     1.0  0.3894338072283607  0.22593869392050286  0.824366221247582  1.0000
  H   H1170     1.0  0.4018106881507288  0.2329749345909914  0.7717815006565064  1.0000
  H   H1171     1.0  0.3229773700758514  0.1974822419342197  0.7430785501194251  1.0000
  H   H1172     1.0  0.31112529178183596  0.19029216580328862  0.7954111218038792  1.0000
  C   C1611     1.0  0.3321494323945086  0.17941120744180636  0.6927636366303631  1.0000
  C   C1612     1.0  0.3501554112467197  0.20532393838769117  0.6914893507670851  1.0000
  C   C1613     1.0  0.3499595456161607  0.2173707264564369  0.6636684544607594  1.0000
  C   C1614     1.0  0.3356885763892564  0.20436439730276404  0.6378934663662155  1.0000
  C   C1615     1.0  0.3196160683967238  0.17883046084052617  0.640007314700059  1.0000
  C   C1616     1.0  0.3175051019132629  0.16628596179794775  0.6675158265276259  1.0000
  C   C1617     1.0  0.37238231774175207  0.21807583393940494  0.7166914005126945  1.0000
  C   C1618     1.0  0.3879930841422193  0.20310477743742433  0.7096200245092205  1.0000
  C   C1619     1.0  0.39847251531246614  0.20529997794546043  0.6803238236279492  1.0000
  C   C1620     1.0  0.40602470100061533  0.18863560887267433  0.670213819828476  1.0000
  C   C1621     1.0  0.40357583245351514  0.16949837414264446  0.6889916757642732  1.0000
  C   C1622     1.0  0.393618358880462  0.16708513350627707  0.7186231413028671  1.0000
  C   C1623     1.0  0.3856222818572105  0.18357000515184005  0.7284779610699909  1.0000
  C   C1624     1.0  0.37491480490493645  0.26165936388016636  0.7165134954508006  1.0000
  C   C1625     1.0  0.38548286397503595  0.28657557467935757  0.7079710173541578  1.0000
  C   C1626     1.0  0.4092636792186351  0.2989977668927849  0.6930494053912007  1.0000
  C   C1627     1.0  0.4225463205853546  0.28595968958036255  0.6917081132907003  1.0000
  C   C1628     1.0  0.41275750738604766  0.26151013748136587  0.7021143920554536  1.0000
  C   C1629     1.0  0.38766460223453675  0.24847241960635746  0.712809007764353  1.0000
  C   C1630     1.0  0.4181467534810864  0.32493091591235773  0.6750999053078972  1.0000
  C   C1631     1.0  0.3591154046192092  0.2917077565633643  0.6018915053960712  1.0000
  C   C1632     1.0  0.35708369102657694  0.30495606197799996  0.6260373313883884  1.0000
  C   C1633     1.0  0.37529851341315035  0.31502775526065985  0.6494033635398576  1.0000
  C   C1634     1.0  0.39725144287119984  0.3137930473812066  0.6472491246867127  1.0000
  C   C1635     1.0  0.3986128402429265  0.29890349316986586  0.6230211168285337  1.0000
  C   C1636     1.0  0.3803352975600166  0.2892807416627677  0.5999319815319284  1.0000
  C   C1637     1.0  0.4475244597268963  0.33945821319984465  0.6650811887514694  1.0000
  C   C1638     1.0  0.46692604124329595  0.34353570346313045  0.6859530479682742  1.0000
  C   C1639     1.0  0.49091602745616625  0.35071389256361063  0.675417893095692  1.0000
  C   C1640     1.0  0.49618702830398215  0.3553135791015603  0.6441068356735471  1.0000
  C   C1641     1.0  0.4783277798251584  0.3547417111958288  0.6240694025606915  1.0000
  C   C1642     1.0  0.45473209038172413  0.3488359701695409  0.6355926075932943  1.0000
  C   C1643     1.0  0.4158104014578001  0.3659443005438229  0.6814603614774246  1.0000
  C   C1644     1.0  0.4108285561091199  0.38222338435821485  0.6989938158648027  1.0000
  C   C1645     1.0  0.4072887760042954  0.37930203128910533  0.7306788941651029  1.0000
  C   C1646     1.0  0.4106380133514362  0.3616023954155802  0.7452988613249534  1.0000
  C   C1647     1.0  0.4158199982613802  0.34540397008594675  0.7282381861374907  1.0000
  C   C1648     1.0  0.4168887879942591  0.3464020330204376  0.695604514311632  1.0000
  H   H1173     1.0  0.33170257097918837  0.16789790816774283  0.7121625259843206  1.0000
  H   H1174     1.0  0.3635524125140309  0.23744897352139074  0.6591043257797004  1.0000
  H   H1175     1.0  0.33603561879733934  0.21337512722640192  0.6165362205041642  1.0000
  H   H1176     1.0  0.3062704201337884  0.1459316399052669  0.6680978702537438  1.0000
  H   H1177     1.0  0.39893222594796834  0.21891550196259205  0.6634055658784855  1.0000
  H   H1178     1.0  0.4118514660558075  0.18975271600767593  0.6463418555652949  1.0000
  H   H1179     1.0  0.3923759846692928  0.15228240167635693  0.7340572225714114  1.0000
  H   H1180     1.0  0.3756869119038491  0.17936394376943537  0.7508975009367902  1.0000
  H   H1181     1.0  0.3555444630436015  0.2520816718352935  0.7228968317988919  1.0000
  H   H1182     1.0  0.3733686984817914  0.29503246542928135  0.710670178011057  1.0000
  H   H1183     1.0  0.440905549356846  0.29394411992616815  0.6805330138319611  1.0000
  H   H1184     1.0  0.424193517162483  0.2524509153522033  0.699369004099007  1.0000
  H   H1185     1.0  0.3404851178455144  0.30657817690944955  0.6280094626978624  1.0000
  H   H1186     1.0  0.3720304849933457  0.32442751779046874  0.6687884780924351  1.0000
  H   H1187     1.0  0.41588629262934707  0.2975998794007839  0.6204302868129976  1.0000
  H   H1188     1.0  0.3837800665714934  0.2802798145212515  0.579987469960587  1.0000
  H   H1189     1.0  0.46292895124376193  0.3396852181971068  0.7101399648935223  1.0000
  H   H1190     1.0  0.5053988241381276  0.3522126838415341  0.6911129951768314  1.0000
  H   H1191     1.0  0.48351928799267424  0.35987106696993176  0.5999910497480165  1.0000
  H   H1192     1.0  0.4411835396984753  0.3494371792075969  0.6191454947452771  1.0000
  H   H1193     1.0  0.41659454456966766  0.3679512554577606  0.656516997832312  1.0000
  H   H1194     1.0  0.408029015178008  0.3964874192624926  0.6867545546316368  1.0000
  H   H1195     1.0  0.4094287358357981  0.35904983032135074  0.7709340001648063  1.0000
  H   H1196     1.0  0.41815677544319424  0.3309666817531235  0.7406200982798655  1.0000
  C   C1649     1.0  0.19895187362569786  0.11866620428023562  0.969433557478389  1.0000
  C   C1650     1.0  0.21916246825455246  0.13694415635370147  0.9865073070536025  1.0000
  C   C1651     1.0  0.24293227559209196  0.14061859644240207  0.9837826980348312  1.0000
  C   C1652     1.0  0.24746413305384973  0.12497296648415526  0.9649415714011688  1.0000
  C   C1653     1.0  0.22725996620283548  0.1078674329999736  0.9453159815024618  1.0000
  C   C1654     1.0  0.20294707848729895  0.10388977652423592  0.9485355494860827  1.0000
  H   H1197     1.0  0.21669147942311093  0.14981571341115638  0.501066571698896  1.0000
  H   H1198     1.0  0.25870347098883945  0.15515273288047002  0.9973450406141304  1.0000
  H   H1199     1.0  0.23068083531523267  0.09641243685737974  0.9285644221968201  1.0000
  H   H1200     1.0  0.18729806249933814  0.08999657933631551  0.9337498177672493  1.0000
  C   C1655     1.0  0.2761355200458735  0.12474503790497499  0.5239284642959611  1.0000
  C   C1656     1.0  0.2900360839656572  0.13659639305926635  0.9978283260184884  1.0000
  C   C1657     1.0  0.3161877502899651  0.15202124561952826  0.5018160142824655  1.0000
  C   C1658     1.0  0.32674943085587366  0.15884444331889813  0.5315779150149861  1.0000
  C   C1659     1.0  0.31195078719307184  0.14834837262469647  0.5571796674718327  1.0000
  C   C1660     1.0  0.2871015356587042  0.12988298882553592  0.5529402972436537  1.0000
  C   C1661     1.0  0.2757615412629769  0.12896070262449238  0.9645236579355646  1.0000
  C   C1662     1.0  0.2876130514900506  0.14985749491897501  0.937735171319128  1.0000
  C   C1663     1.0  0.2812131932602335  0.14212272193208503  0.9070617237710417  1.0000
  C   C1664     1.0  0.29093641774212914  0.15822382610483832  0.8828927841289509  1.0000
  C   C1665     1.0  0.3077929582222862  0.1837421668316102  0.8886618577239669  1.0000
  C   C1666     1.0  0.31373988490366456  0.19243990695932206  0.9194660491495608  1.0000
  C   C1667     1.0  0.30366555625092345  0.17579278573839408  0.9431050091453268  1.0000
  C   C1668     1.0  0.25724413186038486  0.0800266256666683  0.9722468855568973  1.0000
  C   C1669     1.0  0.2603163318100852  0.05931361826862163  0.9704258101201865  1.0000
  C   C1670     1.0  0.2780501595207442  0.05876767918623911  0.950494372936596  1.0000
  C   C1671     1.0  0.2947227848211229  0.08092676644173213  0.9357133106419595  1.0000
  C   C1672     1.0  0.2934318463087109  0.10234988037030657  0.9403547182934737  1.0000
  C   C1673     1.0  0.2748695756700655  0.10270370448591484  0.9584604106161568  1.0000
  C   C1674     1.0  0.2822210293207759  0.03526470591319343  0.9456731924535088  1.0000
  C   C1675     1.0  0.346839796604441  0.06073113058365864  0.5114394822567561  1.0000
  C   C1676     1.0  0.32202376995137083  0.04554350898897739  0.5211749515414124  1.0000
  C   C1677     1.0  0.3022783911593701  0.03749754917095737  0.5003428109484083  1.0000
  C   C1678     1.0  0.3060358476503852  0.04330338984501661  0.9690833506636369  1.0000
  C   C1679     1.0  0.33120997993187423  0.05846971569886813  0.9592495433053982  1.0000
  C   C1680     1.0  0.35102815004841686  0.06659176376352217  0.980184906691278  1.0000
  C   C1681     1.0  0.2867580045828665  0.030183091491688914  0.9103513331176131  1.0000
  C   C1682     1.0  0.2749751844835804  0.03572276625141043  0.8864275382458487  1.0000
  C   C1683     1.0  0.2748918811795153  0.027863505342287608  0.8566366118709378  1.0000
  C   C1684     1.0  0.2884126424650406  0.015660605497847608  0.849478384577405  1.0000
  C   C1685     1.0  0.3011685710348345  0.011181204885537003  0.8720340381595378  1.0000
  C   C1686     1.0  0.30077441670425464  0.018572527299647444  0.9021775060612993  1.0000
  C   C1687     1.0  0.2584193833447687  0.9880756540038345  0.960727416063652  1.0000
  C   C1688     1.0  0.23742156270533335  0.9642786049270037  0.9628800206183281  1.0000
  C   C1689     1.0  0.21354247656930622  0.9606103464963877  0.9554439625850921  1.0000
  C   C1690     1.0  0.21138894162343888  0.9808643410702655  0.9460350728287527  1.0000
  C   C1691     1.0  0.2327446018840067  0.004515977974017372  0.9424372814851996  1.0000
  C   C1692     1.0  0.2566001200717518  0.00856585247781827  0.9510150137345273  1.0000
  H   H1201     1.0  0.25631916725960024  0.11220014554406338  0.5222169335509047  1.0000
  H   H1202     1.0  0.3295402056674694  0.16019893972106228  0.9827344123026733  1.0000
  H   H1203     1.0  0.3464443504712338  0.1719906175351512  0.5346398899319685  1.0000
  H   H1204     1.0  0.27583885672768454  0.1189790620117089  0.5727489285708712  1.0000
  H   H1205     1.0  0.2675826157501903  0.12243470710511366  0.9013463485542876  1.0000
  H   H1206     1.0  0.28534505280092065  0.15118584232459134  0.8592654976936768  1.0000
  H   H1207     1.0  0.3263605921577551  0.2121357911848811  0.9243899569649752  1.0000
  H   H1208     1.0  0.3073983219087843  0.1835456143509745  0.9668280187766334  1.0000
  H   H1209     1.0  0.24336828241313785  0.08011322448338704  0.9883820808685754  1.0000
  H   H1210     1.0  0.24814133388154674  0.042507361770682074  0.9839858179873875  1.0000
  H   H1211     1.0  0.309601470463975  0.08163654133377998  0.920005367644279  1.0000
  H   H1212     1.0  0.30875234793284784  0.11951485785654542  0.9299442370469434  1.0000
  H   H1213     1.0  0.3189575738493437  0.041764673363341706  0.5453499147407168  1.0000
  H   H1214     1.0  0.28359387477543563  0.026889723470180652  0.5109237261781181  1.0000
  H   H1215     1.0  0.3344651091820621  0.06476412410638636  0.935213682252913  1.0000
  H   H1216     1.0  0.369959818007298  0.07820417997319722  0.9716818852290974  1.0000
  H   H1217     1.0  0.2629903009230125  0.043740907381579416  0.890900846626282  1.0000
  H   H1218     1.0  0.26364277735475994  0.030332375770027845  0.8398430277475258  1.0000
  H   H1219     1.0  0.31139149037522473  0.0016450853636464924  0.8660431669151788  1.0000
  H   H1220     1.0  0.31054685272569676  0.014765045645728822  0.9213758436460088  1.0000
  H   H1221     1.0  0.2773144466644025  0.9899076838634497  0.9629967562232455  1.0000
  H   H1222     1.0  0.23921593670091135  0.9486364820519774  0.9707713475107419  1.0000
  H   H1223     1.0  0.19243145339090548  0.9779375899260195  0.9421314342003161  1.0000
  H   H1224     1.0  0.2305112579344068  0.019552825687106284  0.9320618209201443  1.0000
  C   C1693     1.0  0.3421548339265872  0.19910081569699462  0.847360800704204  1.0000
  C   C1694     1.0  0.32015278615516773  0.20195709965223074  0.8611472756449446  1.0000
  H   H1225     1.0  0.3351070445566393  0.17805984996921298  0.8474191685066627  1.0000
  H   H1226     1.0  0.3583726189584809  0.2070993779609312  0.8644602321124993  1.0000
  H   H1227     1.0  0.3058731441643385  0.19941110752262867  0.8442042699472384  1.0000
  H   H1228     1.0  0.3286044193639088  0.2219119807989237  0.8689685611744079  1.0000
  C   C1695     1.0  0.32158438281536256  0.15695904848488787  0.5910969640093626  1.0000
  C   C1696     1.0  0.30497909604795775  0.16376819510670163  0.6114430460616197  1.0000
  H   H1229     1.0  0.3403714687706521  0.17392158914623745  0.5918060160736307  1.0000
  H   H1230     1.0  0.32420680536392565  0.1419669631901282  0.601763329701872  1.0000
  H   H1231     1.0  0.2875255517079932  0.14763297250518048  0.618817934637879  1.0000
  H   H1232     1.0  0.2988202780334236  0.17481853688954452  0.5983420425929539  1.0000
  C   C1697     1.0  0.43179528863718347  0.14908693455479285  0.6975577344531092  1.0000
  C   C1698     1.0  0.41311192627821713  0.1521896587665967  0.6765633028511413  1.0000
  H   H1233     1.0  0.4241240299448684  0.14395539136405283  0.7215118805821522  1.0000
  H   H1234     1.0  0.4499821590713595  0.16668671626130188  0.6986342702016572  1.0000
  H   H1235     1.0  0.4218700616374672  0.1582531311855286  0.6533403885513006  1.0000
  H   H1236     1.0  0.39552570955867855  0.1335102619411713  0.6730822471125054  1.0000
  C   C1699     1.0  0.3681000946247771  0.07000113339857425  0.5352543861562535  1.0000
  C   C1700     1.0  0.3791901948301008  0.052510896532408514  0.5357771281950734  1.0000
  H   H1237     1.0  0.3833279834219394  0.08981158945363298  0.5283392023921587  1.0000
  H   H1238     1.0  0.3616533196177261  0.07186733536477688  0.5585326331328249  1.0000
  H   H1239     1.0  0.38928258975094077  0.05415216530482089  0.5134171986991529  1.0000
  H   H1240     1.0  0.36411825646740226  0.03250285150182032  0.5346412907592275  1.0000
  C   C1701     1.0  0.5265408787932236  0.00027096170410745345  0.5329542277969618  1.0000
  C   C1702     1.0  0.5377709737182165  0.9946687411716275  0.5617841866721931  1.0000
  H   H1241     1.0  0.5067097061684134  0.994421089800642  0.5369395813488406  1.0000
  H   H1242     1.0  0.5353293327611618  0.021115923506264917  0.5309087865275998  1.0000
  H   H1243     1.0  0.5562425796007169  0.9969080241432505  0.556338704174008  1.0000
  H   H1244     1.0  0.5251107457306854  0.9741626383335564  0.5676153636090252  1.0000
  C   C1703     1.0  0.5368458409568747  0.0196341846774276  0.7735535471391519  1.0000
  C   C1704     1.0  0.555406998980222  0.038930916389092116  0.7980867018685851  1.0000
  H   H1245     1.0  0.5424901166021728  0.005271012242127337  0.7686623252931145  1.0000
  H   H1246     1.0  0.5174015239381572  0.010170665729381436  0.7831585527117526  1.0000
  H   H1247     1.0  0.5516505733719022  0.05476904548345161  0.801649472530663  1.0000
  H   H1248     1.0  0.5751367468796529  0.04828433073298302  0.7890700437447679  1.0000
  C   C1705     1.0  0.17474920717326792  0.9356376070067294  0.9893626599498813  1.0000
  C   C1706     1.0  0.19113695679467935  0.934897698008937  0.9616099372368272  1.0000
  H   H1249     1.0  0.16281788542612996  0.9434121235589862  0.9807475723069798  1.0000
  H   H1250     1.0  0.18765850666517014  0.9496819235332604  0.5074613481362691  1.0000
  H   H1251     1.0  0.1800191499135168  0.9270664493091132  0.9399624866609514  1.0000
  H   H1252     1.0  0.19781580008203872  0.9210658084329045  0.9674887423004656  1.0000
  C   C1707     1.0  0.3986239627800665  0.9284899511298833  0.8719149678425221  1.0000
  C   C1708     1.0  0.42303665283142683  0.9495022616220411  0.856867748368674  1.0000
  H   H1253     1.0  0.3985444419774194  0.9324118268975673  0.8973656644266056  1.0000
  H   H1254     1.0  0.39968679559995945  0.9111154530867107  0.8724869723066173  1.0000
  H   H1255     1.0  0.4216326241177756  0.9462894319658683  0.8313119897401648  1.0000
  H   H1256     1.0  0.4234793112262972  0.967455875567098  0.8591557662250545  1.0000
  C   C1709     1.0  0.3941308741320226  0.9473343976584772  0.7020515883000081  1.0000
  C   C1710     1.0  0.4191584571790876  0.9723486226074277  0.7101990331096105  1.0000
  H   H1257     1.0  0.3875602329437327  0.9462221722207664  0.6775186670417849  1.0000
  H   H1258     1.0  0.399293102718907  0.9323343020841041  0.7025430451967102  1.0000
  H   H1259     1.0  0.4345411653940832  0.9696654686903818  0.7008288995741035  1.0000
  H   H1260     1.0  0.4217839898657901  0.9739423379102844  0.7356074714047139  1.0000
  C   C1711     1.0  0.2876103219953346  0.006110334483180078  0.8162741091147101  1.0000
  C   C1712     1.0  0.2654292821620949  0.9783861738799556  0.809421729106061  1.0000
  H   H1261     1.0  0.28694795261569905  0.01933271610943769  0.7990159172837272  1.0000
  H   H1262     1.0  0.3061517741474604  0.0077864640865105625  0.812998508040729  1.0000
  H   H1263     1.0  0.2508734606623467  0.9719650481151741  0.8277165331087101  1.0000
  H   H1264     1.0  0.25588644723692333  0.9783587203485076  0.7876201875316942  1.0000
  C   C1713     1.0  0.1450914877937272  0.829897885111253  0.6893299755473237  1.0000
  C   C1714     1.0  0.15520871784114834  0.8253719093167021  0.6579414056835136  1.0000
  H   H1265     1.0  0.12439616252487226  0.8167622406802725  0.689819564674347  1.0000
  H   H1266     1.0  0.14685535729050173  0.8489591614324171  0.6884553923952828  1.0000
  H   H1267     1.0  0.15361758336863607  0.8065105279561259  0.6598222497499422  1.0000
  H   H1268     1.0  0.17566687909226625  0.8391956100688494  0.6539077235911991  1.0000
  C   C1715     1.0  0.1453335756960269  0.8127344915032965  0.8914588428177871  1.0000
  C   C1716     1.0  0.14906572593386808  0.7997327053569954  0.9202341694299171  1.0000
  H   H1269     1.0  0.14843931870715701  0.8315755737515077  0.8985890535661396  1.0000
  H   H1270     1.0  0.125514762824096  0.8011424935486771  0.8845247478856956  1.0000
  H   H1271     1.0  0.14005408220022847  0.778810872587923  0.9163585473466606  1.0000
  H   H1272     1.0  0.16981204463124824  0.8073541103010418  0.9227346460872469  1.0000
  C   C1717     1.0  0.17164109274774125  0.1400811332485979  0.9583016501934691  1.0000
  C   C1718     1.0  0.1728134094800192  0.11737099724986372  0.9719527118325058  1.0000
  H   H1273     1.0  0.151130993111116  0.13561702193781236  0.9589857208382849  1.0000
  H   H1274     1.0  0.17661475147161043  0.14120175550585104  0.9334299622097757  1.0000
  H   H1275     1.0  0.15793651816279258  0.09881500178386425  0.9609468790008967  1.0000
  H   H1276     1.0  0.16679272518796492  0.11457369755683455  0.9961403291713832  1.0000
  C   C1719     1.0  0.3181942123785224  0.25386661984822967  0.5817779606688096  1.0000
  C   C1720     1.0  0.33833621331164565  0.282214190922067  0.577095929026784  1.0000
  H   H1277     1.0  0.3260117548577953  0.24229920267986418  0.5729289348736538  1.0000
  H   H1278     1.0  0.31508014338866464  0.24953054176222011  0.6069634339585208  1.0000
  H   H1279     1.0  0.32881304140400375  0.2936471937830749  0.5772222369513046  1.0000
  H   H1280     1.0  0.3467931193121653  0.28413041034878117  0.5540973805595946  1.0000
  C   C1721     1.0  0.1996517930910399  0.3289387627846931  0.7105086159338513  1.0000
  C   C1722     1.0  0.18874282406683285  0.3385686094006283  0.684595879825505  1.0000
  H   H1281     1.0  0.21919487093729048  0.33363788493988805  0.7049823523970634  1.0000
  H   H1282     1.0  0.18822534204113425  0.3081496609767004  0.7125202038777874  1.0000
  H   H1283     1.0  0.19990287143994648  0.3595804189984992  0.68416489197215  1.0000
  H   H1284     1.0  0.1689835564031091  0.33334102382653213  0.6912007803517294  1.0000
  C   C1723     1.0  0.19121743221701196  0.35126730826138525  0.9488390620588676  1.0000
  C   C1724     1.0  0.18045577029454196  0.33288103033747796  0.9208598722722742  1.0000
  H   H1285     1.0  0.1817942436797782  0.3627495727199945  0.9497169138078463  1.0000
  H   H1286     1.0  0.21059624358904733  0.3657291427533176  0.9450148036417749  1.0000
  H   H1287     1.0  0.1915763697486451  0.32315970035595554  0.916071377758564  1.0000
  H   H1288     1.0  0.16113017400552107  0.31739646208468303  0.9262717349162429  1.0000
  C   C1725     1.0  0.05289264542826412  0.2623368711389075  0.5260086927755885  1.0000
  C   C1726     1.0  0.059190236276441995  0.24229231516839933  0.5371907963706227  1.0000
  H   H1289     1.0  0.06749415411969942  0.2754561605785235  0.5101579406098602  1.0000
  H   H1290     1.0  0.05450517882719984  0.2737921063646611  0.5468413288291412  1.0000
  H   H1291     1.0  0.05407666556084941  0.2269511800110876  0.5198496055245435  1.0000
  H   H1292     1.0  0.048068872528603875  0.23236244306597292  0.558528197179838  1.0000
  C   C1727     1.0  0.0067276596838978684  0.27767516286638555  0.8413465823388614  1.0000
  C   C1728     1.0  0.036594195130239  0.2916097654027649  0.8423435044048558  1.0000
  H   H1293     1.0  0.9993659707858581  0.26306899082518465  0.822881344353033  1.0000
  H   H1294     1.0  0.0009959852833839658  0.2914354120523824  0.8336140158691352  1.0000
  H   H1295     1.0  0.044271136783060744  0.2792446541853709  0.8346109379351296  1.0000
  H   H1296     1.0  0.04282202160736457  0.2952925689475905  0.8672385395095326  1.0000
  C   C1729     1.0  0.6287948676720738  0.16950868144603853  0.6387692168743055  1.0000
  C   C1730     1.0  0.650807506799597  0.16652478078510904  0.6253037648470877  1.0000
  H   H1297     1.0  0.6262665380091719  0.18271128013374277  0.6238158528268111  1.0000
  H   H1298     1.0  0.6351226693455307  0.1796041256512806  0.6608418185232904  1.0000
  H   H1299     1.0  0.6688077020685786  0.18555645916268826  0.6264883977657891  1.0000
  H   H1300     1.0  0.6465768457785986  0.1622073093530775  0.6001470085161862  1.0000
  C   C1731     1.0  0.6047868130876244  0.018461303970388303  0.7497698349932883  1.0000
  C   C1732     1.0  0.612787122167747  0.9982093587372244  0.7524127290886176  1.0000
  H   H1301     1.0  0.6034064000067806  0.02484082046858074  0.7732430304300719  1.0000
  H   H1302     1.0  0.5856285108485912  0.008406568157950378  0.7405617304774068  1.0000
  H   H1303     1.0  0.6106655063794499  0.9891512054079611  0.7293938686261725  1.0000
  H   H1304     1.0  0.6336034550845966  0.008128636559370015  0.7572502525563931  1.0000
  C   C1733     1.0  0.7959593878103557  0.12875267033993995  0.878454496429993  1.0000
  C   C1734     1.0  0.8162594328263687  0.1422293305493331  0.8526909484247308  1.0000
  H   H1305     1.0  0.7797534134473846  0.10977685156467246  0.871464368407541  1.0000
  H   H1306     1.0  0.7864197881865791  0.13966505818438554  0.883894375619142  1.0000
  H   H1307     1.0  0.8266834388799943  0.1625432507797158  0.8598841963997388  1.0000
  H   H1308     1.0  0.8295296903306705  0.13499752781128987  0.852114274536439  1.0000
  C   C1735     1.0  0.8162178623805673  0.12474646981484733  0.5933093371937566  1.0000
  C   C1736     1.0  0.8227322302095077  0.11051437566402732  0.6178385229126224  1.0000
  H   H1309     1.0  0.821732893595578  0.14344634537620501  0.6031685929138672  1.0000
  H   H1310     1.0  0.7954440730277803  0.11549740622502151  0.5906995960102239  1.0000
  H   H1311     1.0  0.8438751252363287  0.11824969139346157  0.6189477446305471  1.0000
  H   H1312     1.0  0.8129109552628957  0.08990588068114547  0.6125214495798462  1.0000
  C   C1737     1.0  0.9399064747129251  0.6740312113995122  0.5680703989969931  1.0000
  C   C1738     1.0  0.9485316879635798  0.6542421135900163  0.5618332156262584  1.0000
  H   H1313     1.0  0.9201646894827563  0.6646320348332934  0.5599820224034788  1.0000
  H   H1314     1.0  0.9390356679667599  0.6772054696604062  0.5933756430173496  1.0000
  H   H1315     1.0  0.9692171114802262  0.6634417385511933  0.5603784565177783  1.0000
  H   H1316     1.0  0.9428061994763054  0.6450606611883212  0.5382542577314199  1.0000
  C   C1739     1.0  0.940822121135329  0.826020976416527  0.9681961600662649  1.0000
  C   C1740     1.0  0.9648652475933033  0.8276404357387653  0.9537116062081185  1.0000
  H   H1317     1.0  0.9438946076450194  0.8330221834834801  0.9928577239611069  1.0000
  H   H1318     1.0  0.9368466806471176  0.8395352162852655  0.955973942231417  1.0000
  H   H1319     1.0  0.9815144536546122  0.8471490499434469  0.9561910704565634  1.0000
  H   H1320     1.0  0.9612214241481578  0.8242943847868418  0.9283146080022969  1.0000
  C   C1741     1.0  0.8565891250063441  0.677158904890127  0.8281297771501176  1.0000
  C   C1742     1.0  0.8726894287626006  0.6644764599919  0.8230377700636222  1.0000
  H   H1321     1.0  0.8359438293001743  0.663555446334386  0.8214968600787131  1.0000
  H   H1322     1.0  0.8626405745996036  0.6934187159386184  0.8134444380515132  1.0000
  H   H1323     1.0  0.8684263567954968  0.6493402241974957  0.8403473255607689  1.0000
  H   H1324     1.0  0.8933468033483997  0.6778944234399349  0.8272519254011391  1.0000
  C   C1743     1.0  0.8648594929494262  0.6635102690638314  0.5523965427959486  1.0000
  C   C1744     1.0  0.8768757525607404  0.6821041889817422  0.5796830235029626  1.0000
  H   H1325     1.0  0.8471188902253086  0.6468811717634759  0.5591772471431785  1.0000
  H   H1326     1.0  0.8768583695006409  0.6550260386317909  0.5461927458082203  1.0000
  H   H1327     1.0  0.8673125602334999  0.6935317421853624  0.5819292500127825  1.0000
  H   H1328     1.0  0.897006631710466  0.6958712162376486  0.5754875458622325  1.0000
  C   C1745     1.0  0.20532546843720423  0.7100779502686945  0.8104490024293338  1.0000
  C   C1746     1.0  0.2178719120072273  0.7284170205648355  0.7822643579780856  1.0000
  H   H1329     1.0  0.21783201556317283  0.7189068702151669  0.831232609528821  1.0000
  H   H1330     1.0  0.20741124967473265  0.6931217166763564  0.8061251156231946  1.0000
  H   H1331     1.0  0.21143875529244255  0.7182812372328075  0.7593258116118238  1.0000
  H   H1332     1.0  0.2386691298039601  0.7340822874561099  0.7833780156489972  1.0000
  C   C1747     1.0  0.08222505590953935  0.7415518538501574  0.906263252233407  1.0000
  C   C1748     1.0  0.05486661374634772  0.7355720324864589  0.899116698500366  1.0000
  H   H1333     1.0  0.09488514198147843  0.7618764260237206  0.9001252941268522  1.0000
  H   H1334     1.0  0.08428691995105102  0.7403700971414295  0.9320875027532262  1.0000
  H   H1335     1.0  0.041842126850464866  0.7152743983160683  0.893100145422925  1.0000
  H   H1336     1.0  0.05480692429665927  0.7445601055061724  0.8772007560331803  1.0000
  C   C1749     1.0  0.09143675003748593  0.49447876171988253  0.823359960333194  1.0000
  C   C1750     1.0  0.07297447164513937  0.4738282240438384  0.8002252981506711  1.0000
  H   H1337     1.0  0.09446977971747894  0.48446101396229857  0.8433100752135715  1.0000
  H   H1338     1.0  0.11051995227863254  0.5060156700362162  0.8137199340791184  1.0000
  H   H1339     1.0  0.07567355883944817  0.4832744601759683  0.7776066073418828  1.0000
  H   H1340     1.0  0.05327551240325588  0.46757197411861734  0.8074418932466625  1.0000
  C   C1751     1.0  0.998650350914409  0.589277862547571  0.7395251183057406  1.0000
  C   C1752     1.0  0.019169607627423407  0.6174795788395693  0.7377343941263084  1.0000
  H   H1341     1.0  0.9930093438193135  0.5844853826987141  0.7642567235635332  1.0000
  H   H1342     1.0  0.007384620010472363  0.5769394719769221  0.7340922432528866  1.0000
  H   H1343     1.0  0.009898261345935964  0.6287848019226607  0.7353273059529123  1.0000
  H   H1344     1.0  0.03020178115434662  0.6200211127495835  0.7155639680404027  1.0000
  C   C1753     1.0  0.8748541139596935  0.2751208622072614  0.6970954614576366  1.0000
  C   C1754     1.0  0.8662363144979666  0.25005451479844826  0.6783857791151111  1.0000
  H   H1345     1.0  0.8834553323010709  0.27368293657904175  0.7191251044040119  1.0000
  H   H1346     1.0  0.857964979065744  0.27649282949079174  0.7042578912329462  1.0000
  H   H1347     1.0  0.8836077118826176  0.2485212805521469  0.6731399145013346  1.0000
  H   H1348     1.0  0.859810890762085  0.25212232913757243  0.6547860422825973  1.0000
  C   C1755     1.0  0.8950167475214762  0.2955478587177738  0.5078956045865617  1.0000
  C   C1756     1.0  0.8875439197060236  0.2670828881589153  0.5103237051688428  1.0000
  H   H1349     1.0  0.8770890461751424  0.29536601354736197  0.5016525844355811  1.0000
  H   H1350     1.0  0.9067989286055604  0.30350629575608146  0.9870653032451074  1.0000
  H   H1351     1.0  0.8814496874161376  0.25988250633610843  0.5338766725470188  1.0000
  H   H1352     1.0  0.870112616726203  0.25585237761392343  0.9966072715910528  1.0000
  C   C1757     1.0  0.8503831894389077  0.44988852800035106  0.6050221208487451  1.0000
  C   C1758     1.0  0.8514365607912499  0.47452540094758144  0.5955034996237832  1.0000
  H   H1353     1.0  0.8404769386723921  0.4361762448012975  0.5861385024548927  1.0000
  H   H1354     1.0  0.8386883115800777  0.44225443777605905  0.625629690656017  1.0000
  H   H1355     1.0  0.8564779871579019  0.4770966557661479  0.5704100139907469  1.0000
  H   H1356     1.0  0.8318839726580659  0.47190700528052654  0.5962489731967856  1.0000
  C   C1759     1.0  0.06331205217051293  0.3942326788590385  0.6401737796726713  1.0000
  C   C1760     1.0  0.05480005682174617  0.4143534093936724  0.638538313847779  1.0000
  H   H1357     1.0  0.0798955285481704  0.400888269265774  0.6244485598054631  1.0000
  H   H1358     1.0  0.04853769948169725  0.3754756358444256  0.6300460320612506  1.0000
  H   H1359     1.0  0.06343990985724435  0.42749784442101624  0.6185499096889887  1.0000
  H   H1360     1.0  0.06232813089156444  0.42737735041805747  0.659984979183197  1.0000
  C   C1761     1.0  0.01872346494837461  0.5335899557837969  0.5257495397326719  1.0000
  C   C1762     1.0  0.006011683623297376  0.5180043279462263  0.9958741719921715  1.0000
  H   H1361     1.0  0.01857934939633906  0.5521086609197362  0.5256811326681904  1.0000
  H   H1362     1.0  0.039278881415419624  0.5388286604754265  0.5269267015726586  1.0000
  H   H1363     1.0  0.9853455238079658  0.5103530042894674  0.9951340682569955  1.0000
  H   H1364     1.0  0.007182922130587578  0.5003601427471109  0.9962477259279072  1.0000
  C   C1763     1.0  0.003806987616747971  0.5218781450682461  0.7380309025627984  1.0000
  C   C1764     1.0  0.9840482431462148  0.5173765865611314  0.7629959790304257  1.0000
  H   H1365     1.0  0.018192619223081165  0.5173337072132143  0.7461230146956701  1.0000
  H   H1366     1.0  0.014559497561880243  0.5422911002362165  0.7333311271088253  1.0000
  H   H1367     1.0  0.9721055309386758  0.5255939335455153  0.7540446928453622  1.0000
  H   H1368     1.0  0.9703375196130386  0.4962787498887234  0.7648917652542836  1.0000
  C   C1765     1.0  0.8634777489530996  0.02888369957221955  0.9429836041162127  1.0000
  C   C1766     1.0  0.888319268982545  0.05114840727447326  0.956188735744465  1.0000
  H   H1369     1.0  0.8632754610098872  0.010614901227329405  0.9442069932557469  1.0000
  H   H1370     1.0  0.8608527369407786  0.030832117834433393  0.9179391474372417  1.0000
  H   H1371     1.0  0.8922571259951951  0.045423369078874634  0.9788307736742367  1.0000
  H   H1372     1.0  0.9037309850922829  0.05378840963259885  0.941115834437535  1.0000
  C   C1767     1.0  0.7496228032811605  0.0707590800297944  0.5708356320062755  1.0000
  C   C1768     1.0  0.7209063251914589  0.05749899281962483  0.5765741208728034  1.0000
  H   H1373     1.0  0.7603824629077868  0.07525817932648936  0.5925946818204525  1.0000
  H   H1374     1.0  0.7565983716420152  0.08869646817649736  0.5580484138436277  1.0000
  H   H1375     1.0  0.7138772677558956  0.03713959669759727  0.5826660851510208  1.0000
  H   H1376     1.0  0.7110932397682924  0.056595360607424185  0.55435816790098  1.0000
  C   C1769     1.0  0.7401660654108453  0.8146696173555678  0.9954982833443378  1.0000
  C   C1770     1.0  0.7512725813345988  0.8047293547832647  0.5213233458423833  1.0000
  H   H1377     1.0  0.722708695132194  0.7989469913349053  0.9842659834391891  1.0000
  H   H1378     1.0  0.7533556379338242  0.8204846485987402  0.9756368875236976  1.0000
  H   H1379     1.0  0.7394024519679636  0.7987086233191931  0.5422627249330723  1.0000
  H   H1380     1.0  0.7704804348126387  0.8200258977449753  0.5288577419492017  1.0000
  C   C1771     1.0  0.6627721781904381  0.9281211054905257  0.9034826101242754  1.0000
  C   C1772     1.0  0.6803271861340422  0.9572405055278356  0.9042320527078449  1.0000
  H   H1381     1.0  0.6592669202034119  0.9210560809463655  0.9276562191905631  1.0000
  H   H1382     1.0  0.6725062752069567  0.9189494615122898  0.8942208072301319  1.0000
  H   H1383     1.0  0.6872153705010982  0.9635328473378076  0.8804460058498831  1.0000
  H   H1384     1.0  0.6679414029159487  0.9652007847164672  0.9083481501372312  1.0000
  C   C1773     1.0  0.5031790965842203  0.8157047360972365  0.7881081423602487  1.0000
  C   C1774     1.0  0.5033245341741841  0.7912776508516174  0.7982921565332396  1.0000
  H   H1385     1.0  0.5066427493135045  0.8171962706617497  0.7626948011697389  1.0000
  H   H1386     1.0  0.48351720436229784  0.8130795727922628  0.7893175232271926  1.0000
  H   H1387     1.0  0.4877182380667834  0.7744573266033691  0.786079277546785  1.0000
  H   H1388     1.0  0.49908392835900484  0.7888496264320378  0.8228976873377214  1.0000
  C   C1775     1.0  0.7179441568366182  0.7383141153328405  0.8378281712066521  1.0000
  C   C1776     1.0  0.7077008997257486  0.7567612413241693  0.8397216227184117  1.0000
  H   H1389     1.0  0.7332284646576672  0.7457503511690154  0.8196571069452153  1.0000
  H   H1390     1.0  0.7030058874811078  0.7195383860789559  0.8277305413813002  1.0000
  H   H1391     1.0  0.7079434669521805  0.7629218372098955  0.8644322155673193  1.0000
  H   H1392     1.0  0.7212305550837024  0.7746715802665793  0.8273826692786466  1.0000
  C   C1777     1.0  0.6666913283234095  0.8657954799047097  0.6788445500424364  1.0000
  C   C1778     1.0  0.6604539859193452  0.8484033265071943  0.6496457066556661  1.0000
  H   H1393     1.0  0.6626255795905566  0.8814414919560324  0.6749623907653045  1.0000
  H   H1394     1.0  0.6870160066098183  0.8743993719263995  0.6852435289615865  1.0000
  H   H1395     1.0  0.6395854366174346  0.8371585548908794  0.6449746481605028  1.0000
  H   H1396     1.0  0.6667367662332316  0.8342035035220836  0.6538507566159993  1.0000
  C   C1779     1.0  0.6488979469512794  0.8605742167113758  0.9119856315864563  1.0000
  C   C1780     1.0  0.6678952355819667  0.8680178804321756  0.8850360498352337  1.0000
  H   H1397     1.0  0.636011854512992  0.868252169924425  0.9091116009933906  1.0000
  H   H1398     1.0  0.6353909464523767  0.8403413032039349  0.912461912854519  1.0000
  H   H1399     1.0  0.6840755531024963  0.865433453596719  0.8905226232663498  1.0000
  H   H1400     1.0  0.6765001671480516  0.8885753265704377  0.8818795190782682  1.0000
  C   C1781     1.0  0.26950615704472325  0.49257902846525864  0.812393817607257  1.0000
  C   C1782     1.0  0.292735218287491  0.49309215157788333  0.7987287476956306  1.0000
  H   H1401     1.0  0.26620999070695023  0.5064492827673848  0.8000782112884752  1.0000
  H   H1402     1.0  0.27305279311116465  0.4994556405706657  0.8365557531130529  1.0000
  H   H1403     1.0  0.3087886462405871  0.5121621534980673  0.8002533146958513  1.0000
  H   H1404     1.0  0.2893598150231226  0.48829846207251276  0.7730539187501057  1.0000
  C   C1783     1.0  0.2576672181932449  0.344894351127833  0.9233953696110793  1.0000
  C   C1784     1.0  0.2655645594753986  0.32448309489458393  0.9236942127596677  1.0000
  H   H1405     1.0  0.25819506599179665  0.3523527671370548  0.9472584619682867  1.0000
  H   H1406     1.0  0.23796059694320273  0.3360382837262044  0.9147452612867026  1.0000
  H   H1407     1.0  0.2861739317484881  0.3337441382055105  0.923829626061372  1.0000
  H   H1408     1.0  0.26075992334794645  0.31469425748532964  0.9012763071913372  1.0000
  C   C1785     1.0  0.5088312233926562  0.5935785164304102  0.8307843448059384  1.0000
  C   C1786     1.0  0.5170004745754031  0.6171391616180225  0.8519625182500464  1.0000
  H   H1409     1.0  0.5008123088554766  0.5965682799792418  0.8088193733846873  1.0000
  H   H1410     1.0  0.5252391013421078  0.5919695377046172  0.8227015715214602  1.0000
  H   H1411     1.0  0.5231364793366711  0.6148165033100684  0.8745672007862446  1.0000
  H   H1412     1.0  0.5010181854237955  0.620687019985484  0.8553198342474698  1.0000
  C   C1787     1.0  0.39996440889502965  0.3958953054028026  0.7502087608677778  1.0000
  C   C1788     1.0  0.37141000369134447  0.3871941181525907  0.7466203083726181  1.0000
  H   H1413     1.0  0.4119392487925562  0.41537338430266824  0.7418154708742193  1.0000
  H   H1414     1.0  0.4049091248843829  0.3970643490118384  0.7751084653966512  1.0000
  H   H1415     1.0  0.35887427773121944  0.366026239123473  0.7475845444692354  1.0000
  H   H1416     1.0  0.368125180429123  0.39256108075754714  0.7233315551916041  1.0000
  C   C1789     1.0  0.749609646741302  0.5880182818936004  0.6548766291120132  1.0000
  C   C1790     1.0  0.7279535630838311  0.5714796906670723  0.6774035657353363  1.0000
  H   H1417     1.0  0.7493851107295436  0.6052001204366095  0.6483100178642016  1.0000
  H   H1418     1.0  0.7445955486278641  0.5763643176566344  0.6331547012202  1.0000
  H   H1419     1.0  0.7324889852890097  0.5797000251106814  0.7017039496685642  1.0000
  H   H1420     1.0  0.7261123419673549  0.5524475308964228  0.6802467781287037  1.0000
  C   C1791     1.0  0.6852028655640677  0.603710177032473  0.507783538405841  1.0000
  C   C1792     1.0  0.7143363706269414  0.6202537053112533  0.5084245751356763  1.0000
  H   H1421     1.0  0.6779019945252421  0.615547523189882  0.9983793180736983  1.0000
  H   H1422     1.0  0.679256465949482  0.5887455391861925  0.9899276602776811  1.0000
  H   H1423     1.0  0.7215921617397574  0.6096499369899239  0.9947208242155883  1.0000
  H   H1424     1.0  0.7215101073376167  0.6209446265775915  0.5327865954683004  1.0000
  C   C1793     1.0  0.5457381787578928  0.3824365979691602  0.641527445747293  1.0000
  C   C1794     1.0  0.5210295141504678  0.35801164003363956  0.6313537043075351  1.0000
  H   H1425     1.0  0.5501446465915631  0.38112554759271944  0.6663806895054094  1.0000
  H   H1426     1.0  0.5618455696820872  0.3834229662923882  0.6282917293905526  1.0000
  H   H1427     1.0  0.5219597785800563  0.34141171437738305  0.6385847746185361  1.0000
  H   H1428     1.0  0.51999544890996  0.3579495974541958  0.605320263583704  1.0000
  C   C1795     1.0  0.5936364664056444  0.6432014371986255  0.675540698952065  1.0000
  C   C1796     1.0  0.5814239316129717  0.6144417270156608  0.682304593372187  1.0000
  H   H1429     1.0  0.6134820621448934  0.6502245024893082  0.6671574482205296  1.0000
  H   H1430     1.0  0.5831410056815871  0.6459368803737794  0.6560617289731342  1.0000
  H   H1431     1.0  0.5617696700148902  0.6041978541826537  0.6734744787450279  1.0000
  H   H1432     1.0  0.5784245749719777  0.6102708846041688  0.7074954364997244  1.0000
  C   C1797     1.0  0.4843713576619833  0.48325055907944114  0.9955870024040749  1.0000
  C   C1798     1.0  0.4684394447005665  0.47564383605003924  0.5256129590749187  1.0000
  H   H1433     1.0  0.49164932291353464  0.46958575038950534  0.9923230748905855  1.0000
  H   H1434     1.0  0.5017723336477387  0.5025313358387444  0.9980664666525197  1.0000
  H   H1435     1.0  0.45074674398812586  0.457295231267908  0.5221748153446505  1.0000
  H   H1436     1.0  0.4621269742923949  0.48920151456559596  0.531843605251778  1.0000
  C   C1799     1.0  0.4651956065744922  0.4660508077391041  0.7327409118903632  1.0000
  C   C1800     1.0  0.4738957193199396  0.4586326886232138  0.7626340986551818  1.0000
  H   H1437     1.0  0.4664112516529067  0.4844493497236476  0.7364269553512338  1.0000
  H   H1438     1.0  0.44481362884628006  0.45225039195371086  0.7280630827301147  1.0000
  H   H1439     1.0  0.49554673463243776  0.4683599143443462  0.7626807928971489  1.0000
  H   H1440     1.0  0.4663429517431237  0.438209303587952  0.75981143172828  1.0000
