data_image0
_chemical_formula_sum              "C1800 H1440"
_cell_length_a       47.15265071045852
_cell_length_b       47.30175404613607
_cell_length_c       46.66162454004965
_cell_angle_alpha    90.49310000007603
_cell_angle_beta     89.27849999965386
_cell_angle_gamma    119.48740000020197

_space_group_name_H-M_alt    "P 1"
_space_group_IT_number       1

loop_
  _space_group_symop_operation_xyz
  'x, y, z'

loop_
  _atom_site_type_symbol
  _atom_site_label
  _atom_site_symmetry_multiplicity
  _atom_site_fract_x
  _atom_site_fract_y
  _atom_site_fract_z
  _atom_site_occupancy
  C   C1        1.0  0.626424653864589  0.24402318019391808  0.28918456269580844  1.0000
  C   C2        1.0  0.6214151482345485  0.21387504912120817  0.28094584502623393  1.0000
  C   C3        1.0  0.6466927618889703  0.20977377936939115  0.2707374651458531  1.0000
  C   C4        1.0  0.6784654200347559  0.23572137867015072  0.27003018709409465  1.0000
  C   C5        1.0  0.6826796169563545  0.26593875380084236  0.2772701424239133  1.0000
  C   C6        1.0  0.6570532743745688  0.2703988328323797  0.28611326133771786  1.0000
  H   H1        1.0  0.5974086741656626  0.1936168420655295  0.28279762756174703  1.0000
  H   H2        1.0  0.6420224886383988  0.1851687377751168  0.2668667252625931  1.0000
  H   H3        1.0  0.706958838991031  0.28711573885430275  0.2792162286996609  1.0000
  H   H4        1.0  0.6622764682698373  0.29440889622981636  0.2923244485922515  1.0000
  C   C7        1.0  0.7484710845527561  0.2828250261384517  0.24072744308305838  1.0000
  C   C8        1.0  0.7433425823943893  0.26213615696894227  0.2635575212870928  1.0000
  C   C9        1.0  0.7705058290895677  0.26787481249373957  0.2797198964031859  1.0000
  C   C10       1.0  0.8010571020264775  0.29251329002285337  0.2725635284794841  1.0000
  C   C11       1.0  0.8060824822246369  0.3100807356162114  0.24800597721570022  1.0000
  C   C12       1.0  0.77976882399485  0.3054487730644325  0.2323665592045437  1.0000
  C   C13       1.0  0.7093157793056852  0.22930216410261256  0.2674132583025883  1.0000
  C   C14       1.0  0.7099076438937988  0.20911548323502216  0.24048311066517816  1.0000
  C   C15       1.0  0.7323986205508498  0.19828500545155628  0.23847486965154877  1.0000
  C   C16       1.0  0.7352042470784862  0.18251262128343035  0.21477033858352207  1.0000
  C   C17       1.0  0.7148968827993901  0.17669844079334293  0.19225724954268486  1.0000
  C   C18       1.0  0.6910313515155395  0.1852050915178403  0.19393735640563475  1.0000
  C   C19       1.0  0.6899898306449874  0.20291400564114673  0.21714293495714823  1.0000
  C   C20       1.0  0.7069825815450836  0.22768663779768233  0.3228981498296295  1.0000
  C   C21       1.0  0.6901864509813448  0.2103690807205473  0.3466734087028321  1.0000
  C   C22       1.0  0.672459908727928  0.17657977155767818  0.3456896492308408  1.0000
  C   C23       1.0  0.6790354024502652  0.1615909394906682  0.32332037339386105  1.0000
  C   C24       1.0  0.6941221461261634  0.17870907729707433  0.2993050686364253  1.0000
  C   C25       1.0  0.7057556205102428  0.21165581302362452  0.29771262138655696  1.0000
  C   C26       1.0  0.6464193810413557  0.15581407610562337  0.3705086790470929  1.0000
  C   C27       1.0  0.7222987847697084  0.1674758979131242  0.42907558826634234  1.0000
  C   C28       1.0  0.7066688553511487  0.18488368250329415  0.43385078674912386  1.0000
  C   C29       1.0  0.6825395431765551  0.18077104969839608  0.4159888010419869  1.0000
  C   C30       1.0  0.6714237396804404  0.1574729695719525  0.3941703447786495  1.0000
  C   C31       1.0  0.6855313855405055  0.13769098233632723  0.3922885565076072  1.0000
  C   C32       1.0  0.7116293444701572  0.1439521255582424  0.40878528124816793  1.0000
  C   C33       1.0  0.6205746088781511  0.11958809514632128  0.36078039093517855  1.0000
  C   C34       1.0  0.6058711059488759  0.11301614027245048  0.33438606000364607  1.0000
  C   C35       1.0  0.5828458375758488  0.0823751109317276  0.32634237961501095  1.0000
  C   C36       1.0  0.571439242259284  0.05742532929560262  0.3457753799037811  1.0000
  C   C37       1.0  0.5833946679472568  0.0632126002680462  0.37279768801460217  1.0000
  C   C38       1.0  0.6074090605284529  0.09403225891116036  0.38062918498770976  1.0000
  C   C39       1.0  0.6035286402951989  0.15703119978864563  0.40548465033996167  1.0000
  C   C40       1.0  0.5726300735686216  0.1527039193901108  0.4078593899804114  1.0000
  C   C41       1.0  0.5598209553797984  0.16217994340319386  0.38593591364272195  1.0000
  C   C42       1.0  0.5790660194215024  0.17719172003049583  0.362398557386929  1.0000
  C   C43       1.0  0.6089817976253529  0.18004139385062373  0.3594065569013083  1.0000
  C   C44       1.0  0.6213721107332438  0.16734483158988073  0.3799047608013632  1.0000
  H   H5        1.0  0.7281948788113094  0.279057240648276  0.22804787655516995  1.0000
  H   H6        1.0  0.7680155273118684  0.25184939896879954  0.2972453892190317  1.0000
  H   H7        1.0  0.8224668413706689  0.29629348751191753  0.2837792437669149  1.0000
  H   H8        1.0  0.7835021379190025  0.31872949261106875  0.21242903390551912  1.0000
  H   H9        1.0  0.7499539625235261  0.20587471062892895  0.25538095835540003  1.0000
  H   H10       1.0  0.7547322090072954  0.17629471465213398  0.21346080255435712  1.0000
  H   H11       1.0  0.6762674731705248  0.18163736611777836  0.17519427370735263  1.0000
  H   H12       1.0  0.6713903797821164  0.21016187616935306  0.21657925578256498  1.0000
  H   H13       1.0  0.7158015466252703  0.2535713260606359  0.3228081326230421  1.0000
  H   H14       1.0  0.6883640210259764  0.22220592558055888  0.36647505088524607  1.0000
  H   H15       1.0  0.6679374511754885  0.13553342660377954  0.32313176591339215  1.0000
  H   H16       1.0  0.6927491789037563  0.16400947337089192  0.2807229452765888  1.0000
  H   H17       1.0  0.7149235692894924  0.20398802485489723  0.449820267851101  1.0000
  H   H18       1.0  0.6716878717164038  0.19636736409332753  0.41908796486878314  1.0000
  H   H19       1.0  0.6762697683106333  0.11847893955478099  0.37643909834774664  1.0000
  H   H20       1.0  0.7243110432849539  0.13081492905665876  0.4039264953592695  1.0000
  H   H21       1.0  0.6124151741583492  0.13180537552696728  0.31840157603390434  1.0000
  H   H22       1.0  0.5745374788535582  0.07872860422026792  0.304316026469793  1.0000
  H   H23       1.0  0.5749855918356249  0.044005076072135996  0.3878305615147053  1.0000
  H   H24       1.0  0.6170117825933785  0.09777615061106894  0.40203399075410967  1.0000
  H   H25       1.0  0.6114917097012877  0.1477791822396112  0.4221656960273443  1.0000
  H   H26       1.0  0.5583980237102351  0.14167199002005754  0.4271209289233007  1.0000
  H   H27       1.0  0.5690632363188597  0.18398278284899022  0.34448941980967485  1.0000
  H   H28       1.0  0.6203308997698019  0.18776308298862246  0.33838325262949326  1.0000
  C   C45       1.0  0.9565306019163925  0.2747692680063092  0.5592190363235502  1.0000
  C   C46       1.0  0.9625434168756777  0.2971935450918989  0.5383607635971455  1.0000
  C   C47       1.0  0.9381702178590083  0.2965336384143436  0.5230878442128092  1.0000
  C   C48       1.0  0.9060978447658646  0.2730349515629006  0.5281545269835882  1.0000
  C   C49       1.0  0.9000795989560271  0.24899255927793368  0.5480440431057662  1.0000
  C   C50       1.0  0.9253587846752147  0.24976221384053202  0.5634627046341011  1.0000
  H   H29       1.0  0.9870597449734394  0.31636749571743245  0.5350858518908214  1.0000
  H   H30       1.0  0.9446261262129951  0.314939946997073  0.5073605522618888  1.0000
  H   H31       1.0  0.8754511828115711  0.23011238891444205  0.5531493046793683  1.0000
  H   H32       1.0  0.919940797488119  0.23195559214245198  0.5805209652824216  1.0000
  C   C51       1.0  0.844098408956184  0.21732650297881356  0.4955682981989337  1.0000
  C   C52       1.0  0.8445721261005631  0.24426532356170116  0.5079778131070599  1.0000
  C   C53       1.0  0.8148975129119291  0.2431453388346426  0.5117371031154974  1.0000
  C   C54       1.0  0.7868695207431026  0.2172914457398852  0.5025917835795778  1.0000
  C   C55       1.0  0.7866576372764826  0.19145863636079194  0.4891706467307547  1.0000
  C   C56       1.0  0.8155592581217695  0.19111250344692934  0.4863672537256029  1.0000
  C   C57       1.0  0.8776712632040207  0.27658664761392776  0.5145126336519436  1.0000
  C   C58       1.0  0.8841206691855019  0.29449601030938016  0.48436329924562055  1.0000
  C   C59       1.0  0.8699564665943322  0.3131391525760536  0.4783321464042619  1.0000
  C   C60       1.0  0.8801218179635305  0.3342903461327845  0.4557806928872838  1.0000
  C   C61       1.0  0.9021850499130931  0.33401621424868433  0.43651058087710043  1.0000
  C   C62       1.0  0.9129625191645692  0.3119031263092184  0.4396504667735434  1.0000
  C   C63       1.0  0.9031619190144708  0.2917040563146085  0.4630013588156909  1.0000
  C   C64       1.0  0.8541104824392488  0.28528267483765896  0.563743472587981  1.0000
  C   C65       1.0  0.8462482180762525  0.30417700620781274  0.580510248948304  1.0000
  C   C66       1.0  0.8574431206122523  0.3363861046510533  0.5734803337671894  1.0000
  C   C67       1.0  0.8835383564524653  0.3508647721188354  0.5545102791122974  1.0000
  C   C68       1.0  0.8928741151387551  0.3322421114916833  0.5391837780573735  1.0000
  C   C69       1.0  0.874831482390263  0.2986477020733406  0.5404847410192445  1.0000
  C   C70       1.0  0.8363450152444397  0.3537985913615265  0.5777411482123284  1.0000
  C   C71       1.0  0.7723743409093617  0.2970662415966237  0.5070476353056562  1.0000
  C   C72       1.0  0.7644750817079969  0.2870776506982041  0.5351330037609385  1.0000
  C   C73       1.0  0.7825036472771204  0.3056620477636196  0.5576223025400348  1.0000
  C   C74       1.0  0.8107437842911893  0.3352897587422881  0.5522405595461999  1.0000
  C   C75       1.0  0.8186428522967724  0.34516823223086596  0.5238915692716257  1.0000
  C   C76       1.0  0.7989889334735225  0.3275251018028545  0.5018373536577021  1.0000
  C   C77       1.0  0.8578445471391586  0.3923959966734859  0.5771817555713922  1.0000
  C   C78       1.0  0.8869986952534821  0.4069366183892266  0.5919210015166742  1.0000
  C   C79       1.0  0.9067623507678204  0.44020041048135156  0.5920688869274965  1.0000
  C   C80       1.0  0.8971604743151664  0.45967456663860196  0.5784184205285577  1.0000
  C   C81       1.0  0.8679664182050593  0.4458217813264557  0.5638442061286859  1.0000
  C   C82       1.0  0.848287289788909  0.41236059008287634  0.5627061314454018  1.0000
  C   C83       1.0  0.7915585688100113  0.353452468604069  0.6106574400878035  1.0000
  C   C84       1.0  0.7743640336461486  0.3470874078346162  0.6356200687812309  1.0000
  C   C85       1.0  0.7836180264530426  0.3369544185708816  0.6594789150605503  1.0000
  C   C86       1.0  0.8120340090656545  0.33507216402289747  0.6579229033466817  1.0000
  C   C87       1.0  0.8292270966667624  0.34194629549726263  0.6326559307643158  1.0000
  C   C88       1.0  0.8183656175834749  0.3489561817195362  0.6080833766327673  1.0000
  H   H33       1.0  0.8667215107501033  0.21750830273170968  0.49096241779520955  1.0000
  H   H34       1.0  0.8133926122599104  0.2634473788625003  0.5206916719041245  1.0000
  H   H35       1.0  0.76471043782696  0.21802467187596322  0.5063896523908386  1.0000
  H   H36       1.0  0.8169173983924801  0.17191777412056622  0.4750336587628792  1.0000
  H   H37       1.0  0.8535598674465132  0.31509278472068597  0.4933607333707179  1.0000
  H   H38       1.0  0.8698197669776576  0.35014316339966084  0.4536995808016551  1.0000
  H   H39       1.0  0.9297402944954797  0.31091387519704333  0.4239081719548584  1.0000
  H   H40       1.0  0.9124613043680878  0.2750452132792678  0.46595263723166497  1.0000
  H   H41       1.0  0.8434860397102045  0.25985978057567577  0.5670419602293637  1.0000
  H   H42       1.0  0.826402270657136  0.2923122226880611  0.5958024577340518  1.0000
  H   H43       1.0  0.8938640321663117  0.37545503866832897  0.5474696475970654  1.0000
  H   H44       1.0  0.912223509326711  0.3436270290456887  0.5242152025619758  1.0000
  H   H45       1.0  0.7447196833831854  0.26370341152156135  0.540386150745363  1.0000
  H   H46       1.0  0.7739935722305609  0.2956756125819667  0.5786477500786733  1.0000
  H   H47       1.0  0.8414937857917277  0.36678867901379864  0.5193242676707247  1.0000
  H   H48       1.0  0.8074249748125047  0.33634328368728494  0.4807947599844755  1.0000
  H   H49       1.0  0.893953915001099  0.39195167746628884  0.6035653701688071  1.0000
  H   H50       1.0  0.9301101998992001  0.450134335545762  0.6031024245349287  1.0000
  H   H51       1.0  0.8599290757662695  0.46099137673320756  0.5537729953250099  1.0000
  H   H52       1.0  0.8274063188916192  0.4029074948187058  0.549332146466696  1.0000
  H   H53       1.0  0.7829749796031819  0.3602385936888208  0.592180336802319  1.0000
  H   H54       1.0  0.7531528967109447  0.34911679100421134  0.6353007220245278  1.0000
  H   H55       1.0  0.8223000586270738  0.32999353516255603  0.6764407287018129  1.0000
  H   H56       1.0  0.8516455258222955  0.34048468467500165  0.6320279535850272  1.0000
  C   C89       1.0  0.8654536686038845  0.7076927090356404  0.5715706830274415  1.0000
  C   C90       1.0  0.8325879245567822  0.6895846811927914  0.5770831652975107  1.0000
  C   C91       1.0  0.8165861732522605  0.656765650982  0.5716114050970882  1.0000
  C   C92       1.0  0.8330402974314756  0.6410004665455901  0.5613601598802372  1.0000
  C   C93       1.0  0.8661615403458669  0.6599343932938426  0.5566685488035726  1.0000
  C   C94       1.0  0.8822061121788629  0.6925730689457505  0.5619388419225851  1.0000
  H   H57       1.0  0.8196319483895794  0.7017275037708598  0.5846317510499148  1.0000
  H   H58       1.0  0.7905905801739621  0.6426125370970625  0.5774453773906839  1.0000
  H   H59       1.0  0.8804882750142877  0.648542543059375  0.5500565706530426  1.0000
  H   H60       1.0  0.9077134932561642  0.7065589896875387  0.5570028984280402  1.0000
  C   C95       1.0  0.84047093255375  0.6040775804642247  0.5088286900359935  1.0000
  C   C96       1.0  0.8268140838992378  0.5883134418518078  0.5345500351849437  1.0000
  C   C97       1.0  0.8211356635314071  0.5565306467144452  0.5373405685891545  1.0000
  C   C98       1.0  0.8309167491956722  0.542652935467834  0.5163644161874567  1.0000
  C   C99       1.0  0.8462537821586884  0.5597150121300332  0.4917425669189674  1.0000
  C   C100      1.0  0.8518350820696583  0.5907258031120136  0.48827904773217434  1.0000
  C   C101      1.0  0.8120769410034887  0.6026524195902891  0.5577916206190922  1.0000
  C   C102      1.0  0.777113053294215  0.5891484552575061  0.5437017845213338  1.0000
  C   C103      1.0  0.7514869811255259  0.5584966401789214  0.5485648569438792  1.0000
  C   C104      1.0  0.7227956037790297  0.546196926034458  0.5335791353138934  1.0000
  C   C105      1.0  0.7186581916180668  0.565002748435923  0.5135888856510105  1.0000
  C   C106      1.0  0.744369200978644  0.5949848430361011  0.5073669820623593  1.0000
  C   C107      1.0  0.7726380797955278  0.6075275572192669  0.5231692883521026  1.0000
  C   C108      1.0  0.8421042827213218  0.5927124209136009  0.5990537935053174  1.0000
  C   C109      1.0  0.8425895934962238  0.5759802259837714  0.6227668976406381  1.0000
  C   C110      1.0  0.8138694836529482  0.5531263857053785  0.6359779943407572  1.0000
  C   C111      1.0  0.7865701629912877  0.5559731245567288  0.6298804002278696  1.0000
  C   C112      1.0  0.7867251489355241  0.5750219533297963  0.6076097146647714  1.0000
  C   C113      1.0  0.8132937471034972  0.5901825618902747  0.5892483477877565  1.0000
  C   C114      1.0  0.8121923743397834  0.5230495971846286  0.6538292637137766  1.0000
  C   C115      1.0  0.8884084012009175  0.5039647814702933  0.6220081811851154  1.0000
  C   C116      1.0  0.8765238029871875  0.49426367274904576  0.6496048848046373  1.0000
  C   C117      1.0  0.8508241232021376  0.49748983326744073  0.6591767144384354  1.0000
  C   C118      1.0  0.8360305093145564  0.5105493973520154  0.6422920584028192  1.0000
  C   C119      1.0  0.8438741750178144  0.5129691139879451  0.6130879046656644  1.0000
  C   C120      1.0  0.8704096066966204  0.5112413472629347  0.6034817827626902  1.0000
  C   C121      1.0  0.7795147003454115  0.4886083171310629  0.65149310287615  1.0000
  C   C122      1.0  0.7613080389236246  0.4794816154716912  0.626800525802485  1.0000
  C   C123      1.0  0.7354165226367827  0.4493854720972083  0.6237570869131001  1.0000
  C   C124      1.0  0.7259749780163579  0.4278467732169355  0.6458798870653759  1.0000
  C   C125      1.0  0.7428344145462775  0.4357995479830655  0.6710697020420955  1.0000
  C   C126      1.0  0.7699059180102902  0.46579609820367157  0.6733329918077225  1.0000
  C   C127      1.0  0.7974783368929849  0.5319625070160566  0.705617019970262  1.0000
  C   C128      1.0  0.8060861106131543  0.5371317758088515  0.7338331277017784  1.0000
  C   C129      1.0  0.8381335148043401  0.549612041843965  0.7421104241741763  1.0000
  C   C130      1.0  0.8614857156257671  0.5594309176205532  0.7210914064360083  1.0000
  C   C131      1.0  0.8529516730641608  0.5559528462278279  0.6923652012004964  1.0000
  C   C132      1.0  0.8206354432841476  0.5386406709863321  0.6844651196890364  1.0000
  H   H61       1.0  0.8422128444891627  0.6266721028808737  0.503541250782393  1.0000
  H   H62       1.0  0.8067001435868622  0.5414388442342426  0.5551832648948798  1.0000
  H   H63       1.0  0.8256138836640942  0.5180129155303489  0.5191549495916674  1.0000
  H   H64       1.0  0.8626976224938644  0.603794393004594  0.46885033397705117  1.0000
  H   H65       1.0  0.7542168332687654  0.5418908735704762  0.562249615611994  1.0000
  H   H66       1.0  0.7038125108043791  0.5218284727976009  0.5385515143444379  1.0000
  H   H67       1.0  0.7419845563998797  0.6098112232945829  0.4916268305104978  1.0000
  H   H68       1.0  0.7921034541543679  0.6317109227169337  0.5172603017196841  1.0000
  H   H69       1.0  0.8643021857922424  0.6074550908659176  0.587600175600477  1.0000
  H   H70       1.0  0.8652072941388034  0.5776287861850804  0.6295739130721076  1.0000
  H   H71       1.0  0.7640227597090694  0.5412617824315124  0.642030579850351  1.0000
  H   H72       1.0  0.7644292443241526  0.5755968769866118  0.6035203615655133  1.0000
  H   H73       1.0  0.8897225146591722  0.4871967731739785  0.6637375862388658  1.0000
  H   H74       1.0  0.8435307140454108  0.49361118231648443  0.6816338642151789  1.0000
  H   H75       1.0  0.8314261079615421  0.5195395193670564  0.5970734149603936  1.0000
  H   H76       1.0  0.877567072326567  0.5171740278196619  0.5815947419610004  1.0000
  H   H77       1.0  0.7690953993392553  0.49538195303323995  0.6081133823682965  1.0000
  H   H78       1.0  0.7228797378700612  0.4413415969146717  0.6035953759043362  1.0000
  H   H79       1.0  0.7352620933511005  0.4193690741187935  0.6887645129369986  1.0000
  H   H80       1.0  0.7848362098432631  0.4714693238575599  0.6918658200306184  1.0000
  H   H81       1.0  0.7717769409021014  0.5196677086121806  0.700721798545364  1.0000
  H   H82       1.0  0.7864115732118142  0.5276186152285298  0.7493332333694069  1.0000
  H   H83       1.0  0.8870221410643463  0.5695317597855732  0.7264902955644313  1.0000
  H   H84       1.0  0.8717769185525917  0.5624669684794248  0.6762156856853443  1.0000
  C   C133      1.0  0.49855235393109426  0.3680062353260688  0.46766510742364986  1.0000
  C   C134      1.0  0.48637067847290005  0.3813827951912198  0.44886008431416824  1.0000
  C   C135      1.0  0.5073239877405828  0.4055138231187223  0.43090379486679686  1.0000
  C   C136      1.0  0.5409467983068645  0.41770348184812506  0.430925227535032  1.0000
  C   C137      1.0  0.5519991177997539  0.40307632840205937  0.4497881188487483  1.0000
  C   C138      1.0  0.5313063445858358  0.3790490724251093  0.468308087470703  1.0000
  H   H85       1.0  0.46064606441262795  0.3739161174563463  0.4485771730934649  1.0000
  H   H86       1.0  0.49577983699633965  0.41432753807673595  0.4161838383229263  1.0000
  H   H87       1.0  0.5780676590101371  0.4112755567611248  0.4513291276948524  1.0000
  H   H88       1.0  0.5414745040887663  0.3687164457408985  0.48271512705834096  1.0000
  C   C139      1.0  0.5969015554536472  0.4798570732274047  0.4529387210793088  1.0000
  C   C140      1.0  0.5985082571441215  0.4708187747427084  0.42468189127814565  1.0000
  C   C141      1.0  0.6282099150281796  0.487667551371372  0.41104214121332455  1.0000
  C   C142      1.0  0.6556367433720631  0.509048232092328  0.4252841492555522  1.0000
  C   C143      1.0  0.6545860648265714  0.5135114276209519  0.4544904462595305  1.0000
  C   C144      1.0  0.6247680054156518  0.4991869258675061  0.4684066777445845  1.0000
  C   C145      1.0  0.5662608155521567  0.4446582687974448  0.409612582242043  1.0000
  C   C146      1.0  0.5549927060654887  0.46770843977182597  0.3955013134760495  1.0000
  C   C147      1.0  0.5638367454595712  0.477864932725578  0.3675188218282957  1.0000
  C   C148      1.0  0.551867879871751  0.4947336460288922  0.3532660974519506  1.0000
  C   C149      1.0  0.5318178765175922  0.5038000120680313  0.3672337673407688  1.0000
  C   C150      1.0  0.5250353425281363  0.4963227732369892  0.3953469982647568  1.0000
  C   C151      1.0  0.5375628869865312  0.48024637028850653  0.4097776137874533  1.0000
  C   C152      1.0  0.5962010552856962  0.4152533719989761  0.3845792257434397  1.0000
  C   C153      1.0  0.5991302109281138  0.3973009850766644  0.36226567484387134  1.0000
  C   C154      1.0  0.5744889720138204  0.38197760920034907  0.34187463428499193  1.0000
  C   C155      1.0  0.5454295311320836  0.381250699543344  0.3478393458548218  1.0000
  C   C156      1.0  0.5434724305345361  0.40136775043025413  0.36805249526734984  1.0000
  C   C157      1.0  0.5697934740884357  0.42057413670166255  0.3867460685020089  1.0000
  C   C158      1.0  0.5793436735843751  0.3644890575861522  0.3141236154541773  1.0000
  C   C159      1.0  0.6632054842299531  0.43048492368015606  0.2625630454809839  1.0000
  C   C160      1.0  0.6481922680740897  0.397399758879711  0.25741706183773505  1.0000
  C   C161      1.0  0.6207773649308512  0.3768227092326694  0.27253137947713146  1.0000
  C   C162      1.0  0.6090118607311431  0.38856904253391655  0.2946048844924667  1.0000
  C   C163      1.0  0.6235013229473142  0.4215869563282574  0.29844133210655055  1.0000
  C   C164      1.0  0.6500452345084117  0.44269039654385683  0.2823496847956333  1.0000
  C   C165      1.0  0.5510563495750559  0.35226035553204343  0.29080058588073543  1.0000
  C   C166      1.0  0.5412716925655545  0.37356873013497416  0.28042717445494436  1.0000
  C   C167      1.0  0.5161040388167132  0.3637111246878882  0.2611999277812312  1.0000
  C   C168      1.0  0.499990883010567  0.3321799073545282  0.2520481784448411  1.0000
  C   C169      1.0  0.5107641917192475  0.31130575060680055  0.2607069764118238  1.0000
  C   C170      1.0  0.5370524406740099  0.3218631677452438  0.2784960910469613  1.0000
  C   C171      1.0  0.5612940800234704  0.30836427122186855  0.3357513209702223  1.0000
  C   C172      1.0  0.5664847775744457  0.2830467277891232  0.3401171554897133  1.0000
  C   C173      1.0  0.5974813478276458  0.2875123381681952  0.3391033902821928  1.0000
  C   C174      1.0  0.6236616091274513  0.31845863623922954  0.3359849370539849  1.0000
  C   C175      1.0  0.617779118237667  0.3431170944034059  0.3305538989232092  1.0000
  C   C176      1.0  0.5864988818937548  0.3380771337498501  0.3273175660197083  1.0000
  H   H89       1.0  0.5739552380248294  0.4700794335253588  0.46386938187921267  1.0000
  H   H90       1.0  0.630288051173058  0.48313185547881654  0.3889236275946956  1.0000
  H   H91       1.0  0.6782588944677775  0.5212837792601211  0.41437706439070693  1.0000
  H   H92       1.0  0.6209710554203612  0.5028472825581192  0.4909774206629742  1.0000
  H   H93       1.0  0.5796579223488939  0.4720605048724701  0.35516717512440443  1.0000
  H   H94       1.0  0.5600518633562843  0.5031851058121519  0.3314519277222601  1.0000
  H   H95       1.0  0.5105790868134715  0.5047743380427973  0.40765577963217786  1.0000
  H   H96       1.0  0.5312667030837607  0.4764404254876774  0.43218546842725614  1.0000
  H   H97       1.0  0.616291352510672  0.4273513235293432  0.39950707916919076  1.0000
  H   H98       1.0  0.6224247335987423  0.3978205328142465  0.3598802188693041  1.0000
  H   H99       1.0  0.5238426227553882  0.36774968814606745  0.3354662664826954  1.0000
  H   H100      1.0  0.520796352001013  0.401728053360042  0.3706501346574447  1.0000
  H   H101      1.0  0.6593053916170875  0.387563662845927  0.24272711102939373  1.0000
  H   H102      1.0  0.6084145838180721  0.3512765050433648  0.26748398610776414  1.0000
  H   H103      1.0  0.6135239611193081  0.43244862438677034  0.31334346633041943  1.0000
  H   H104      1.0  0.6621590160562176  0.4689600309098911  0.28652048203418484  1.0000
  H   H105      1.0  0.5539838176641927  0.39844001093987486  0.2878793132002906  1.0000
  H   H106      1.0  0.5104620842323427  0.38218246463651134  0.25304694078459705  1.0000
  H   H107      1.0  0.4994920255847494  0.2865820520276516  0.25229894066319186  1.0000
  H   H108      1.0  0.5468793875903941  0.3059988723694249  0.28233896846151574  1.0000
  H   H109      1.0  0.5374679522043662  0.30464527605665576  0.33553699428787126  1.0000
  H   H110      1.0  0.5465409515648418  0.2593589822936956  0.34143097805252526  1.0000
  H   H111      1.0  0.6481333553816585  0.3214002826731774  0.3345961001523501  1.0000
  H   H112      1.0  0.639129026627284  0.36665029371385105  0.3271996863444152  1.0000
  C   C177      1.0  0.4307410828167351  0.12717799718776418  0.5559441246172261  1.0000
  C   C178      1.0  0.44875487116490753  0.1241266544545641  0.53442572570918  1.0000
  C   C179      1.0  0.471067773461192  0.15103686624444979  0.5200444053234242  1.0000
  C   C180      1.0  0.47441334298301974  0.18106510103385062  0.5256747672687865  1.0000
  C   C181      1.0  0.45728327114660094  0.18381061596459886  0.5494221636732834  1.0000
  C   C182      1.0  0.43631113525635784  0.1570014035191283  0.564877260737618  1.0000
  H   H113      1.0  0.4456294424360019  0.10065965442872588  0.5286046130165254  1.0000
  H   H114      1.0  0.48542035305763787  0.14751434193600102  0.5034019384388648  1.0000
  H   H115      1.0  0.46036682665150763  0.20674955221390753  0.556229179104753  1.0000
  H   H116      1.0  0.4206604497712874  0.15954850773759668  0.5813461230094732  1.0000
  C   C183      1.0  0.45432440184739664  0.22898665454111108  0.499679083966427  1.0000
  C   C184      1.0  0.48699895798677506  0.23846457529632523  0.503230477092984  1.0000
  C   C185      1.0  0.5090513755095747  0.27016309479804446  0.49679853335562885  1.0000
  C   C186      1.0  0.4990945190348353  0.29178107545704235  0.48834548900370317  1.0000
  C   C187      1.0  0.4667012512023946  0.2819996416403382  0.4864444113312493  1.0000
  C   C188      1.0  0.444004484881522  0.24994953308258167  0.4915089508352048  1.0000
  C   C189      1.0  0.4983206444806132  0.2118087439784313  0.5064860993978965  1.0000
  C   C190      1.0  0.5023244497207976  0.20392766932921788  0.473488363383128  1.0000
  C   C191      1.0  0.532407765601781  0.22145998416442034  0.45902988539172584  1.0000
  C   C192      1.0  0.5373730249330767  0.21423710178422517  0.4314610442409096  1.0000
  C   C193      1.0  0.5122163277746579  0.18923384858702022  0.41723832560009355  1.0000
  C   C194      1.0  0.48217005977139876  0.1719364724294272  0.4298643104573942  1.0000
  C   C195      1.0  0.4771847849640785  0.17942362780116022  0.4575981831536208  1.0000
  C   C196      1.0  0.5426453594995175  0.24529256324880985  0.5445933835199142  1.0000
  C   C197      1.0  0.5701012857317678  0.25308957479310695  0.5596069676186056  1.0000
  C   C198      1.0  0.5895661833477156  0.23910134375633635  0.552261992214435  1.0000
  C   C199      1.0  0.5779216326356515  0.21544852292269837  0.5312472610099139  1.0000
  C   C200      1.0  0.550145668770032  0.20711733157424583  0.5175153504716818  1.0000
  C   C201      1.0  0.5321528197884305  0.22264183931054696  0.5225777467088137  1.0000
  C   C202      1.0  0.6220876003472634  0.2454109069652088  0.5691745107187567  1.0000
  C   C203      1.0  0.680266393480009  0.33757078617827746  0.6151518706167051  1.0000
  C   C204      1.0  0.6822528455850316  0.3101259664290005  0.6211487311888877  1.0000
  C   C205      1.0  0.6616319206537771  0.2809467444370199  0.6084498752595876  1.0000
  C   C206      1.0  0.6399942137586384  0.27842713285565407  0.5871929549040099  1.0000
  C   C207      1.0  0.6389872890587021  0.3068831204597417  0.5814618594179427  1.0000
  C   C208      1.0  0.6578260620188873  0.33546773032393384  0.5958431798036985  1.0000
  C   C209      1.0  0.6480287344008848  0.2494517289778013  0.5449920311490871  1.0000
  C   C210      1.0  0.6594152193318321  0.2280522276466887  0.5379171073646788  1.0000
  C   C211      1.0  0.6819619655714375  0.23441794722787898  0.5162636826467517  1.0000
  C   C212      1.0  0.6945685008690151  0.26313165692201007  0.5013251128868831  1.0000
  C   C213      1.0  0.6826218202796576  0.2838152959411021  0.5062674861818984  1.0000
  C   C214      1.0  0.6595755000750543  0.27681600749402074  0.5272479251172433  1.0000
  C   C215      1.0  0.6163588962810873  0.1932074179088956  0.5968247960088663  1.0000
  C   C216      1.0  0.5992748508405111  0.16711333790207872  0.6150318476745885  1.0000
  C   C217      1.0  0.5751000657514154  0.16615416401075478  0.6325144751539641  1.0000
  C   C218      1.0  0.5685899381656875  0.19132981436464022  0.632081535255615  1.0000
  C   C219      1.0  0.5841013297501267  0.21617182595423087  0.612687113769668  1.0000
  C   C220      1.0  0.6075247069088329  0.21664939655552676  0.593191958743016  1.0000
  H   H117      1.0  0.4357340218429331  0.2042039327139397  0.5016508894440567  1.0000
  H   H118      1.0  0.5349353757603283  0.27791176923578675  0.4971671752492726  1.0000
  H   H119      1.0  0.517843899793625  0.31563145866977965  0.48313092082210196  1.0000
  H   H120      1.0  0.4178502936869094  0.24183148494848225  0.4888255807721696  1.0000
  H   H121      1.0  0.5519214140335615  0.24152752894442714  0.4699584029248061  1.0000
  H   H122      1.0  0.5610207952135516  0.22787580153764342  0.4207404235897098  1.0000
  H   H123      1.0  0.4624573352382619  0.15206018370585186  0.41866359803772807  1.0000
  H   H124      1.0  0.4540140252683397  0.16718106856999365  0.46766296415682634  1.0000
  H   H125      1.0  0.5279819945697583  0.2565710308179417  0.5499001121749263  1.0000
  H   H126      1.0  0.574932649727537  0.2686330138746725  0.5781462256419719  1.0000
  H   H127      1.0  0.5908557889240724  0.20328134945273066  0.5249953516857336  1.0000
  H   H128      1.0  0.5427233662344063  0.18806726367184515  0.5025896403127543  1.0000
  H   H129      1.0  0.7012712591973337  0.3113006104959882  0.6340511974664211  1.0000
  H   H130      1.0  0.6649544940223623  0.26036237723463246  0.6134822657611904  1.0000
  H   H131      1.0  0.6255849058690728  0.3092903625234029  0.5637734783235101  1.0000
  H   H132      1.0  0.6571884520164366  0.35725300874705346  0.5903992820719818  1.0000
  H   H133      1.0  0.6475741559022186  0.2035967605326796  0.5459672175537844  1.0000
  H   H134      1.0  0.6902143198272884  0.2171462381521125  0.5118978481272607  1.0000
  H   H135      1.0  0.6901130693163672  0.305735431306766  0.49425876216976883  1.0000
  H   H136      1.0  0.6496606141403384  0.2930245691948285  0.5270850368386565  1.0000
  H   H137      1.0  0.6378505086017605  0.19509393252338697  0.5871886683703629  1.0000
  H   H138      1.0  0.6052463308714956  0.14751620763183798  0.6168021860708083  1.0000
  H   H139      1.0  0.5517733988210909  0.1937580492524516  0.6463471192329012  1.0000
  H   H140      1.0  0.5773478182362554  0.23440710126271866  0.6120505635230853  1.0000
  C   C221      1.0  0.8534285943170731  0.5193828217744858  0.4208004350607681  1.0000
  C   C222      1.0  0.8795151724494108  0.5419576378628158  0.40457804847361667  1.0000
  C   C223      1.0  0.894919931092014  0.5311593000060587  0.385860899303899  1.0000
  C   C224      1.0  0.8862318353732637  0.49844874152582924  0.3832268243778046  1.0000
  C   C225      1.0  0.8579439272893222  0.47644620905739465  0.3976167178308544  1.0000
  C   C226      1.0  0.8414278993003643  0.48671525715914893  0.41561158608104903  1.0000
  H   H141      1.0  0.888161172655743  0.5677993222793608  0.4078143813771176  1.0000
  H   H142      1.0  0.9137661998175057  0.549169541042897  0.37239689711860574  1.0000
  H   H143      1.0  0.8468355763703812  0.45023543105520075  0.3944018175955886  1.0000
  H   H144      1.0  0.8218644215604457  0.4686110126779772  0.4285290552263471  1.0000
  C   C227      1.0  0.9028745500435146  0.4464152982220542  0.39911271807366483  1.0000
  C   C228      1.0  0.9077038879231037  0.4561894254134166  0.37079159026779634  1.0000
  C   C229      1.0  0.9129956802942641  0.4374940177457422  0.3508527790086777  1.0000
  C   C230      1.0  0.9103365606741223  0.40861180381075335  0.358523530970022  1.0000
  C   C231      1.0  0.9013858483022935  0.39760739250080895  0.3856337130206069  1.0000
  C   C232      1.0  0.8978933326920459  0.41647629865199187  0.40591116043784026  1.0000
  C   C233      1.0  0.9048683960741353  0.48709074992146256  0.36107401848999954  1.0000
  C   C234      1.0  0.9418516950299889  0.5125869446432679  0.3555915419554595  1.0000
  C   C235      1.0  0.9555741232794275  0.5148241638622141  0.3286013828469911  1.0000
  C   C236      1.0  0.9865890535080476  0.5384307475189571  0.3223151812536346  1.0000
  C   C237      1.0  0.005194933891254493  0.559369054928939  0.34341778639791953  1.0000
  C   C238      1.0  0.993773447148758  0.5558133229083192  0.3712673955026157  1.0000
  C   C239      1.0  0.9619868189489176  0.5323637709449263  0.3772878320098568  1.0000
  C   C240      1.0  0.859433857961844  0.4506797381435097  0.32462776615620254  1.0000
  C   C241      1.0  0.8456679195641532  0.44659290921686984  0.2984949137771383  1.0000
  C   C242      1.0  0.8537611340022799  0.4727201383371069  0.28048075612553214  1.0000
  C   C243      1.0  0.8706141347522245  0.5034791000485239  0.2927531019569536  1.0000
  C   C244      1.0  0.8863047130238209  0.5074202713483825  0.318131524414142  1.0000
  C   C245      1.0  0.882630603798167  0.4809846689447463  0.3338438134972979  1.0000
  C   C246      1.0  0.8474068800336227  0.4683062752211661  0.2468679025324161  1.0000
  C   C247      1.0  0.8532746817380196  0.3839004505435486  0.21769589779761395  1.0000
  C   C248      1.0  0.8304918670049803  0.39032843456798755  0.20660792121286448  1.0000
  C   C249      1.0  0.8303426050111486  0.4184651199876621  0.2136828449972728  1.0000
  C   C250      1.0  0.8512119469668595  0.43858103158733186  0.2350820782699316  1.0000
  C   C251      1.0  0.8764374879438801  0.4336717815314541  0.24332722573997667  1.0000
  C   C252      1.0  0.8772290911220374  0.4058950995802466  0.23488061118852158  1.0000
  C   C253      1.0  0.8728246821754208  0.4962410131520687  0.22593461546718854  1.0000
  C   C254      1.0  0.9045324984432229  0.5190342663595114  0.2329088057108919  1.0000
  C   C255      1.0  0.921550628599219  0.5468559381722802  0.2169693303444439  1.0000
  C   C256      1.0  0.9085536072721344  0.5496550683101251  0.19181059273666526  1.0000
  C   C257      1.0  0.8819718649993012  0.5235369933079352  0.18020501721403795  1.0000
  C   C258      1.0  0.8629517415720911  0.4978852766723185  0.19805628658705735  1.0000
  C   C259      1.0  0.8088511605244698  0.4921612914133184  0.24700507160912077  1.0000
  C   C260      1.0  0.7799370460375162  0.4904880362183176  0.2540135541220003  1.0000
  C   C261      1.0  0.753358243887166  0.46124242916822966  0.2611999277812312  1.0000
  C   C262      1.0  0.7554983814048369  0.43303712982434334  0.26012829436947593  1.0000
  C   C263      1.0  0.7847098074950444  0.4346519050918016  0.2538335197088254  1.0000
  C   C264      1.0  0.8119884408742906  0.4645422502524852  0.24700935814276784  1.0000
  H   H145      1.0  0.9020982021948444  0.4615215429012627  0.4168675404396262  1.0000
  H   H146      1.0  0.918088579888981  0.444949520080034  0.3289764545411054  1.0000
  H   H147      1.0  0.9126273464244536  0.39338999003342967  0.3426397805409852  1.0000
  H   H148      1.0  0.8922521428587614  0.40835353159597976  0.427986808719999  1.0000
  H   H149      1.0  0.941458360001569  0.5001407664273894  0.31092800462032305  1.0000
  H   H150      1.0  0.996650150401344  0.5392220038040758  0.3012382953112318  1.0000
  H   H151      1.0  0.009158381627550881  0.5731458390996254  0.387980590192351  1.0000
  H   H152      1.0  0.9526209435626573  0.5285402373422774  0.3987333598459034  1.0000
  H   H153      1.0  0.854688617568464  0.4292923827661051  0.33769740724596986  1.0000
  H   H154      1.0  0.8294961967032547  0.4222171683692148  0.2910706375004978  1.0000
  H   H155      1.0  0.8757114559559851  0.5248552896369736  0.28077009714670603  1.0000
  H   H156      1.0  0.9027245597575952  0.5322562067766919  0.3251550097947861  1.0000
  H   H157      1.0  0.8135451901401671  0.3745340394389066  0.1916869262409487  1.0000
  H   H158      1.0  0.8114452840181191  0.42198066433290915  0.2040036376956168  1.0000
  H   H159      1.0  0.8955997782517009  0.4505487854505018  0.2572863225615009  1.0000
  H   H160      1.0  0.8951320959591175  0.40016628609673865  0.24277640616633447  1.0000
  H   H161      1.0  0.9145755699334631  0.5174624164363981  0.2528969121069513  1.0000
  H   H162      1.0  0.9416769869626116  0.5667531291328745  0.225928185666718  1.0000
  H   H163      1.0  0.8738096300616405  0.5254207035780853  0.1589826034543188  1.0000
  H   H164      1.0  0.8392054357237317  0.4799823750708907  0.19075396219267454  1.0000
  H   H165      1.0  0.8292119006719343  0.5159533695758296  0.24410951813055803  1.0000
  H   H166      1.0  0.7784833334983251  0.5124701601807254  0.2548065628466992  1.0000
  H   H167      1.0  0.7338923232139846  0.4101783607538303  0.26634376815765654  1.0000
  H   H168      1.0  0.7874493504103054  0.41362307757508715  0.2580879043534939  1.0000
  C   C265      1.0  0.6355118537385676  0.307441463312968  0.10335325574337298  1.0000
  C   C266      1.0  0.6022119719994277  0.2896908513038322  0.10434430232256427  1.0000
  C   C267      1.0  0.5842988711117792  0.30362731668829623  0.11462233837470912  1.0000
  C   C268      1.0  0.5995676363091844  0.33690993717314355  0.12155130568843639  1.0000
  C   C269      1.0  0.6339347921869706  0.3541539071666563  0.1208646029981836  1.0000
  C   C270      1.0  0.6515113112997657  0.33920915506995136  0.1127894165872429  1.0000
  H   H169      1.0  0.589288519149522  0.26500913131090975  0.09770617631678737  1.0000
  H   H170      1.0  0.5575943751081648  0.2896588497006419  0.1150542066396465  1.0000
  H   H171      1.0  0.6473696714968523  0.3794411693487475  0.1254331905591787  1.0000
  H   H172      1.0  0.6779397980945707  0.3534345068194853  0.11218008582931883  1.0000
  C   C271      1.0  0.6128485007490451  0.39332092201477953  0.1656548074025895  1.0000
  C   C272      1.0  0.5970006008166979  0.3905190451749344  0.14035268524431802  1.0000
  C   C273      1.0  0.5906868834351482  0.4149882676125223  0.13343657753153182  1.0000
  C   C274      1.0  0.6023339799732074  0.44278055330205374  0.14995987878070408  1.0000
  C   C275      1.0  0.6180116626053468  0.4455267261605233  0.17531172472928103  1.0000
  C   C276      1.0  0.6235781992275728  0.4202024305050792  0.182946898461355  1.0000
  C   C277      1.0  0.5780384863843835  0.35468153329493707  0.1257047424657175  1.0000
  C   C278      1.0  0.5477860146640655  0.3370044631500783  0.1478316148249581  1.0000
  C   C279      1.0  0.5230889913559279  0.34556725690737083  0.14681292010374353  1.0000
  C   C280      1.0  0.4980156234334368  0.33304729548613304  0.1661601897195733  1.0000
  C   C281      1.0  0.4964941854095583  0.31189937620524943  0.1866571076595341  1.0000
  C   C282      1.0  0.520271501564533  0.3034489882240977  0.18866942088012817  1.0000
  C   C283      1.0  0.5464012491793531  0.31637751163959976  0.16949511289695574  1.0000
  C   C284      1.0  0.5873541896499133  0.3707872522968421  0.07181615606882694  1.0000
  C   C285      1.0  0.581585289075566  0.3613232225556417  0.04354804329999462  1.0000
  C   C286      1.0  0.5531048879510321  0.33379222790335183  0.03522573822430308  1.0000
  C   C287      1.0  0.5297195778862058  0.31871392968201767  0.05582681893188668  1.0000
  C   C288      1.0  0.5363634593430419  0.3255767062122029  0.08405442395775455  1.0000
  C   C289      1.0  0.5657346382904931  0.3515854395173289  0.09331955210910832  1.0000
  C   C290      1.0  0.5467206011192128  0.3192328061032418  0.0036425583130514916  1.0000
  C   C291      1.0  0.5078149516553224  0.37913979247902463  0.9698518135735842  1.0000
  C   C292      1.0  0.5408933253153168  0.3920699161890782  0.9721065302719173  1.0000
  C   C293      1.0  0.5539555768927202  0.37302365546079025  0.980475987217726  1.0000
  C   C294      1.0  0.5335434580404343  0.34101336036323926  0.9889440344374162  1.0000
  C   C295      1.0  0.4999972492668981  0.32903504463243594  0.9889376046369456  1.0000
  C   C296      1.0  0.4876771718885309  0.3484958453050686  0.9803238152732567  1.0000
  C   C297      1.0  0.525622817378051  0.28092449159882144  0.0003526437389629322  1.0000
  C   C298      1.0  0.5257306936548634  0.2602168275364886  0.02106088778772186  1.0000
  C   C299      1.0  0.5042592519096429  0.2281779819741242  0.020653667091254935  1.0000
  C   C300      1.0  0.4825717625835883  0.21480265558759956  0.9988673598302701  1.0000
  C   C301      1.0  0.4835825573335499  0.23420619665832237  0.9769460267594041  1.0000
  C   C302      1.0  0.5058563953776857  0.2669437639585376  0.9767295568102297  1.0000
  C   C303      1.0  0.5844167076629314  0.32616251965292525  0.9596927288301441  1.0000
  C   C304      1.0  0.6130223046036961  0.33109399013997415  0.9469145720283743  1.0000
  C   C305      1.0  0.6359330378498461  0.32939701357442486  0.9634005804348174  1.0000
  C   C306      1.0  0.6309064164223084  0.32461478021830165  0.9927954849192646  1.0000
  C   C307      1.0  0.6020834165666659  0.3188975396760592  0.005157847957273587  1.0000
  C   C308      1.0  0.5788816359501618  0.32211778816756415  0.9888261547621232  1.0000
  H   H173      1.0  0.6164291030798837  0.3739742844233035  0.1734985209965911  1.0000
  H   H174      1.0  0.5768831761883415  0.4134963593990453  0.11462126674129737  1.0000
  H   H175      1.0  0.5977640544488685  0.4627613384265629  0.1445232681561872  1.0000
  H   H176      1.0  0.6339679083006869  0.42144411615286576  0.2040649351267692  1.0000
  H   H177      1.0  0.5229859754432256  0.3619190213334972  0.13112613589578745  1.0000
  H   H178      1.0  0.47832158392911667  0.3384193498356423  0.16531960047139246  1.0000
  H   H179      1.0  0.5178244431018889  0.285601206288541  0.20437377987603705  1.0000
  H   H180      1.0  0.5662948833587191  0.3108920420891869  0.17211911446897968  1.0000
  H   H181      1.0  0.6115965316788196  0.39020816379109186  0.07759418909832903  1.0000
  H   H182      1.0  0.60059507752788  0.37448415351312697  0.02800935882954292  1.0000
  H   H183      1.0  0.5059341515600065  0.2990162006859843  0.050065717710290114  1.0000
  H   H184      1.0  0.5179922019990598  0.30908554966685536  0.09866121601334367  1.0000
  H   H185      1.0  0.5562986263722207  0.41729270369062726  0.966954116828198  1.0000
  H   H186      1.0  0.5800991086539534  0.3838470338386576  0.9816140619010101  1.0000
  H   H187      1.0  0.4833278387064283  0.30497042672475216  0.9986380302801544  1.0000
  H   H188      1.0  0.4613503780448068  0.33780940415446553  0.980257374001728  1.0000
  H   H189      1.0  0.541951688376526  0.2696915195561864  0.039000031100505206  1.0000
  H   H190      1.0  0.5053181792389706  0.21311872247095215  0.03756618559557667  1.0000
  H   H191      1.0  0.4687903293221336  0.22351755865802792  0.9584367744715669  1.0000
  H   H192      1.0  0.5057504051135047  0.2801335902123521  0.958012407640512  1.0000
  H   H193      1.0  0.5662982266454861  0.3253954149078711  0.9458622280180305  1.0000
  H   H194      1.0  0.6156599845865164  0.3339108066926794  0.9242988205066909  1.0000
  H   H195      1.0  0.6495115876215272  0.3238665070450946  0.005890845210914097  1.0000
  H   H196      1.0  0.5984778318769051  0.3145612168945957  0.028045794365542775  1.0000
  C   C309      1.0  0.6293390077167159  0.5500075826839071  0.7993356483619081  1.0000
  C   C310      1.0  0.6501755033989988  0.5630271908986122  0.8223886263155876  1.0000
  C   C311      1.0  0.6449497499841302  0.5462964372119309  0.8473362521412503  1.0000
  C   C312      1.0  0.6177168975938562  0.516320375365322  0.8508340635972197  1.0000
  C   C313      1.0  0.5958891137476594  0.5035346235159421  0.828779847983296  1.0000
  C   C314      1.0  0.6024009570982656  0.5194410940319519  0.8027520156785839  1.0000
  H   H197      1.0  0.6717238986460122  0.586718627993411  0.8199281560021975  1.0000
  H   H198      1.0  0.6632410881662207  0.5562491441176317  0.8635865011971074  1.0000
  H   H199      1.0  0.57418063961189  0.4805487390877127  0.8308588168021013  1.0000
  H   H200      1.0  0.5859314175768027  0.5078088089264109  0.7852951074010903  1.0000
  C   C315      1.0  0.5545979937509977  0.47330229697567433  0.8915347005756851  1.0000
  C   C316      1.0  0.5795552355277552  0.46610285184473604  0.8874024821399568  1.0000
  C   C317      1.0  0.5730503479894321  0.4349792264410169  0.8951589647742414  1.0000
  C   C318      1.0  0.5428108651391246  0.41279955360441567  0.9049494076240376  1.0000
  C   C319      1.0  0.5195814792210651  0.4215669983191724  0.9103332938846961  1.0000
  C   C320      1.0  0.5252446975811916  0.45163218223415585  0.9035005592513444  1.0000
  C   C321      1.0  0.6149269706055589  0.4946018768883957  0.8783557528779187  1.0000
  C   C322      1.0  0.6246045970216378  0.5150166800575977  0.9067797574913157  1.0000
  C   C323      1.0  0.6346836555232158  0.5045753345963451  0.9306664662393408  1.0000
  C   C324      1.0  0.6425741543096527  0.5219070892836039  0.9556591006682974  1.0000
  C   C325      1.0  0.6394381314261577  0.5489142522020646  0.9580274105082764  1.0000
  C   C326      1.0  0.6287043248157976  0.5595902535459341  0.935394512852005  1.0000
  C   C327      1.0  0.6201644605663497  0.5419712518336478  0.9109655575976318  1.0000
  C   C328      1.0  0.6279230359282839  0.45751313046041786  0.8472912435379567  1.0000
  C   C329      1.0  0.6477230495005782  0.44688299124316366  0.8365191844829926  1.0000
  C   C330      1.0  0.6794606445466786  0.45905064837912385  0.845017237438212  1.0000
  C   C331      1.0  0.6912583582374605  0.4864959749188475  0.8624248505787646  1.0000
  C   C332      1.0  0.671620561772527  0.49776838324561185  0.873546262125961  1.0000
  C   C333      1.0  0.6387644175047849  0.48238951205760455  0.8672171951961344  1.0000
  C   C334      1.0  0.7020182239275087  0.44429178075184605  0.8319347367475036  1.0000
  C   C335      1.0  0.6537380834791036  0.38161674694887543  0.7574690742314528  1.0000
  C   C336      1.0  0.6814518547061241  0.41098156171885347  0.7534461624037235  1.0000
  C   C337      1.0  0.6957404168376253  0.43074867000047146  0.7759161717814083  1.0000
  C   C338      1.0  0.6857712686946063  0.42122457687051984  0.8041987207844535  1.0000
  C   C339      1.0  0.6579697323599368  0.39080480719644706  0.8071585722677216  1.0000
  C   C340      1.0  0.6422994434621964  0.37094204614259996  0.7843906488015691  1.0000
  C   C341      1.0  0.7090102295477637  0.42742360648207833  0.8587555777769146  1.0000
  C   C342      1.0  0.7223495807078608  0.4449517961005654  0.8836560517324602  1.0000
  C   C343      1.0  0.7340479116224528  0.4338691789574598  0.9051873102414473  1.0000
  C   C344      1.0  0.7315291015925445  0.40370827066383946  0.9031769259609944  1.0000
  C   C345      1.0  0.7164439794973486  0.38529990135784614  0.8795088304289673  1.0000
  C   C346      1.0  0.7061167970359999  0.3969346740615976  0.8574717609496318  1.0000
  C   C347      1.0  0.7655828665319763  0.472326156954235  0.8234173943908726  1.0000
  C   C348      1.0  0.7955252714664282  0.4982835068283052  0.8162910322027  1.0000
  C   C349      1.0  0.7971603807593246  0.5265327260511996  0.8058061709020864  1.0000
  C   C350      1.0  0.7687757197149402  0.5276341681234606  0.8023297921143523  1.0000
  C   C351      1.0  0.7396515828218421  0.5023379527009343  0.8111750542949804  1.0000
  C   C352      1.0  0.7371303373669182  0.4742549426307972  0.8227722710769959  1.0000
  H   H201      1.0  0.5581171320609586  0.49673817710011353  0.8858014618227944  1.0000
  H   H202      1.0  0.591499902002578  0.4279466323815586  0.8946681566716576  1.0000
  H   H203      1.0  0.5374379738414536  0.3894553088955811  0.9127980507317333  1.0000
  H   H204      1.0  0.5061342023564354  0.45819616077476366  0.9086786918969461  1.0000
  H   H205      1.0  0.6372030781756879  0.48326204405996076  0.9293997955466461  1.0000
  H   H206      1.0  0.6501523272068447  0.5136383282834425  0.9737739918606085  1.0000
  H   H207      1.0  0.6262131319876304  0.5815039242527161  0.9375935046129269  1.0000
  H   H208      1.0  0.6095683188998938  0.5491418490685751  0.8942737955761316  1.0000
  H   H209      1.0  0.6028873446043305  0.4460919812330599  0.8390803883370878  1.0000
  H   H210      1.0  0.6358689251263395  0.4282440519475689  0.820648293654897  1.0000
  H   H211      1.0  0.7173322827543221  0.5014073047977718  0.8675858370897781  1.0000
  H   H212      1.0  0.6813537682671267  0.5188938298763104  0.8877175423630128  1.0000
  H   H213      1.0  0.6900982995845385  0.4189308203098412  0.7318034540199141  1.0000
  H   H214      1.0  0.7163978068364703  0.4542372188208969  0.7707144632007481  1.0000
  H   H215      1.0  0.6476656477107176  0.38248124827233115  0.8287112634449436  1.0000
  H   H216      1.0  0.6201406960473814  0.3477529211939458  0.7874898126283653  1.0000
  H   H217      1.0  0.7295465236314629  0.470251711384026  0.8860629403752627  1.0000
  H   H218      1.0  0.7479693960147694  0.4498887987383005  0.9214525621650689  1.0000
  H   H219      1.0  0.7164959493422105  0.36304566302981184  0.8755845088751195  1.0000
  H   H220      1.0  0.697673638199126  0.3818468342087832  0.8386152994363859  1.0000
  H   H221      1.0  0.7643081725236373  0.4498403110900121  0.8308330976002192  1.0000
  H   H222      1.0  0.8178823226343445  0.4969877962945635  0.8182264021443301  1.0000
  H   H223      1.0  0.7699592394424081  0.5489663495263455  0.7941275099807774  1.0000
  H   H224      1.0  0.7181160800995167  0.5049161923896514  0.8077479706441869  1.0000
  C   C353      1.0  0.5817787791821946  0.11471756660753304  0.9105390474997531  1.0000
  C   C354      1.0  0.5748814033973709  0.1349313438064358  0.8955211768674147  1.0000
  C   C355      1.0  0.5996111163488528  0.1638445512474606  0.8851863442444469  1.0000
  C   C356      1.0  0.6320849496617513  0.17390351844749063  0.8900879954698154  1.0000
  C   C357      1.0  0.6384410324231223  0.15403764442573484  0.9076992189586016  1.0000
  C   C358      1.0  0.6135761834148961  0.12474576454956636  0.9169366989679322  1.0000
  H   H225      1.0  0.5499709441572923  0.1286649600589332  0.8909110099300435  1.0000
  H   H226      1.0  0.5934368219742765  0.17894713659629602  0.8718680842031522  1.0000
  H   H227      1.0  0.6624855178155752  0.15890541665359703  0.9131066811543187  1.0000
  H   H228      1.0  0.6187612595944786  0.1089432994004572  0.9296569875654673  1.0000
  C   C359      1.0  0.711742718765464  0.21347176593532058  0.9030397568842897  1.0000
  C   C360      1.0  0.6950510303041871  0.2089615604517597  0.8775863200882783  1.0000
  C   C361      1.0  0.7107815742895953  0.2070782509114736  0.8527608604715556  1.0000
  C   C362      1.0  0.7411940031266488  0.21070494716875646  0.8531273590983759  1.0000
  C   C363      1.0  0.7573076053733919  0.2143645749085921  0.87833217694286  1.0000
  C   C364      1.0  0.7422631744129828  0.21571522685545394  0.9030654760861718  1.0000
  C   C365      1.0  0.6601693172755858  0.20837990925443825  0.8781349963950971  1.0000
  C   C366      1.0  0.6641821163527712  0.23702368531104004  0.8997691317116127  1.0000
  C   C367      1.0  0.6920930682343178  0.26777050610124903  0.8972443633935171  1.0000
  C   C368      1.0  0.6967019340237256  0.2934925549269398  0.9142254664361914  1.0000
  C   C369      1.0  0.6733572329000577  0.28898475558467895  0.9343207361734263  1.0000
  C   C370      1.0  0.6453897288390892  0.25937902009638725  0.9374156134665754  1.0000
  C   C371      1.0  0.6415319011478797  0.2336690368195769  0.9207195649114283  1.0000
  C   C372      1.0  0.6399356160762886  0.18965962086344762  0.8263965352755523  1.0000
  C   C373      1.0  0.6379230525340615  0.19478417194820927  0.7985104906348566  1.0000
  C   C374      1.0  0.649691260051904  0.2255712635190207  0.7869840016580166  1.0000
  C   C375      1.0  0.6610513332274088  0.25051303160530325  0.806849941845136  1.0000
  C   C376      1.0  0.662245392905204  0.24560169129903267  0.8353468175305324  1.0000
  C   C377      1.0  0.6524918654907027  0.2150108921087165  0.8458059596292639  1.0000
  C   C378      1.0  0.656091368241407  0.2316329984599301  0.7538919619030138  1.0000
  C   C379      1.0  0.7552093864569565  0.24429954641505872  0.7495411302512873  1.0000
  C   C380      1.0  0.7289309259789114  0.21422190995478235  0.7505420358578667  1.0000
  C   C381      1.0  0.6979319372597382  0.21027979234170743  0.7519008670239725  1.0000
  C   C382      1.0  0.6927552030900345  0.23690039480623967  0.7532897039256072  1.0000
  C   C383      1.0  0.7197060418046406  0.2671787548745788  0.754959308781122  1.0000
  C   C384      1.0  0.7512470414289373  0.27129244698461114  0.7524731192658498  1.0000
  C   C385      1.0  0.6528458204095154  0.2611422309379143  0.7421704356452345  1.0000
  C   C386      1.0  0.6303076025425566  0.2692659662643441  0.7537183572903094  1.0000
  C   C387      1.0  0.6299601654760945  0.2965687157509711  0.7450124074532095  1.0000
  C   C388      1.0  0.6502179489718429  0.31558941150322206  0.7238390745037488  1.0000
  C   C389      1.0  0.6703639282668242  0.30600436078150395  0.7102078975062216  1.0000
  C   C390      1.0  0.6707970701221618  0.2783776079803906  0.7185987871202655  1.0000
  C   C391      1.0  0.6453657781220261  0.19837747709028125  0.7057906245829664  1.0000
  C   C392      1.0  0.6262727146524188  0.17264242410343467  0.6880700944861812  1.0000
  C   C393      1.0  0.5946543999665025  0.15213643929765766  0.6949414079223559  1.0000
  C   C394      1.0  0.5815640824055428  0.15591542989835466  0.7201826613028398  1.0000
  C   C395      1.0  0.6004113128200245  0.18145249568138988  0.7380425037431533  1.0000
  C   C396      1.0  0.6330245433454382  0.20290147680763063  0.7319256202288541  1.0000
  H   H229      1.0  0.701871821847796  0.21495086409985123  0.9234243676426985  1.0000
  H   H230      1.0  0.7006799612747149  0.20424740302832933  0.832007607819503  1.0000
  H   H231      1.0  0.7530079651951531  0.21038531943793362  0.8332121237743159  1.0000
  H   H232      1.0  0.7542025019150251  0.21760722235506644  0.9234565166450512  1.0000
  H   H233      1.0  0.7110646109261849  0.2706818476602205  0.8823143667009427  1.0000
  H   H234      1.0  0.7181662191887676  0.3161019556592785  0.9129095006065557  1.0000
  H   H235      1.0  0.627730078623335  0.25485519374511073  0.9547224930664232  1.0000
  H   H236      1.0  0.6183357055558161  0.21213008158344623  0.9235465338516388  1.0000
  H   H237      1.0  0.6334032327358388  0.16614645332840425  0.8348238604255958  1.0000
  H   H238      1.0  0.6291150126735767  0.17339928229316373  0.7852500987977966  1.0000
  H   H239      1.0  0.6715697072874399  0.2760876227734036  0.8000343533463725  1.0000
  H   H240      1.0  0.672074152741196  0.26634843362929883  0.8487979601148846  1.0000
  H   H241      1.0  0.7318002497354742  0.19321585387268295  0.748347330630592  1.0000
  H   H242      1.0  0.6768767732083261  0.18559807001007556  0.7507627923406883  1.0000
  H   H243      1.0  0.7173591962812466  0.288410867643595  0.758221360886505  1.0000
  H   H244      1.0  0.7722291319196559  0.29631279732450927  0.7524709759990263  1.0000
  H   H245      1.0  0.6134889708057405  0.2546882462033184  0.769756422930639  1.0000
  H   H246      1.0  0.6139387546497  0.3030246838481217  0.7560223691255832  1.0000
  H   H247      1.0  0.6849662729441265  0.319098873650474  0.6920758601793224  1.0000
  H   H248      1.0  0.6872061913441476  0.27197667008218845  0.7080989229518873  1.0000
  H   H249      1.0  0.6706847099042412  0.21371153419286837  0.6994508413190221  1.0000
  H   H250      1.0  0.6377965660114512  0.1707830090910604  0.6685427904571765  1.0000
  H   H251      1.0  0.5560878167073453  0.1399207255415279  0.7257337223757321  1.0000
  H   H252      1.0  0.5896923895378003  0.185159790879578  0.7576898307142744  1.0000
  C   C397      1.0  0.8321843518124409  0.266249919329823  0.9064689838019065  1.0000
  C   C398      1.0  0.8481152084788439  0.25563183968838293  0.9235615367194032  1.0000
  C   C399      1.0  0.8622844451647548  0.27176757738953494  0.9482026753893041  1.0000
  C   C400      1.0  0.8620753392430711  0.29917966032750615  0.9565549862005247  1.0000
  C   C401      1.0  0.8445321543968825  0.3090972731144672  0.9399168058496122  1.0000
  C   C402      1.0  0.8295042411596044  0.2928302921308343  0.9152456614441823  1.0000
  H   H253      1.0  0.8520988866062578  0.2360743314858272  0.9158907847580591  1.0000
  H   H254      1.0  0.8745942439559642  0.2620635408715154  0.960144958129905  1.0000
  H   H255      1.0  0.8434496453712492  0.3305492279524532  0.9459050933545008  1.0000
  H   H256      1.0  0.8160820649576545  0.30133593998540265  0.9021953097558265  1.0000
  C   C403      1.0  0.9167011040468924  0.37119052561063104  0.9519791115323297  1.0000
  C   C404      1.0  0.9052997072134847  0.35819112572472184  0.978759230492094  1.0000
  C   C405      1.0  0.9186607462255414  0.3785371053420344  0.00227301081282838  1.0000
  C   C406      1.0  0.9410392830901355  0.4102680313007026  0.9992059959883848  1.0000
  C   C407      1.0  0.9524589621178565  0.4225747777162348  0.9722737050841511  1.0000
  C   C408      1.0  0.9401780652299718  0.40262952511302663  0.9487577814965933  1.0000
  C   C409      1.0  0.881581546104921  0.3198278628021431  0.9842824290962807  1.0000
  C   C410      1.0  0.9094705875119525  0.312167022383959  0.9956631759291218  1.0000
  C   C411      1.0  0.9117517150844008  0.3039587682327311  0.023782836653580386  1.0000
  C   C412      1.0  0.9342781589390174  0.29480333618867405  0.031762219037509976  1.0000
  C   C413      1.0  0.9556158611606471  0.29449836693766074  0.011952003787802035  1.0000
  C   C414      1.0  0.9550799890116167  0.30367459658984247  0.9842652829616927  1.0000
  C   C415      1.0  0.9322873221704494  0.3121661767847264  0.9760244220252945  1.0000
  C   C416      1.0  0.8421771067367626  0.3334763109296469  0.014247442555781697  1.0000
  C   C417      1.0  0.8213100433155909  0.32814233088514144  0.036530987719820995  1.0000
  C   C418      1.0  0.8055722669061153  0.29823824747064226  0.04981924202558652  1.0000
  C   C419      1.0  0.8125608886400225  0.27481956108291405  0.0401188163823778  1.0000
  C   C420      1.0  0.8346543487561384  0.28068728514303865  0.01842895612845097  1.0000
  C   C421      1.0  0.8517840141774109  0.31128958160004405  0.006291636106910747  1.0000
  C   C422      1.0  0.779353178853525  0.29112523955742914  0.07459490150550836  1.0000
  C   C423      1.0  0.8015197585265921  0.37296610431910715  0.13079928770520208  1.0000
  C   C424      1.0  0.7723368329645074  0.34462770927243896  0.1337552813081878  1.0000
  C   C425      1.0  0.766406128751078  0.3178431422845542  0.11794697387133869  1.0000
  C   C426      1.0  0.7901851205302503  0.31817017329156183  0.09985887351432136  1.0000
  C   C427      1.0  0.821273386525583  0.34458279309128476  0.10238214154564033  1.0000
  C   C428      1.0  0.8270147978216114  0.37222467309630314  0.11663636620876197  1.0000
  C   C429      1.0  0.7708053704964659  0.2601556160393475  0.0942900233267939  1.0000
  C   C430      1.0  0.7949538391413544  0.2544375549591857  0.10484111157225401  1.0000
  C   C431      1.0  0.7873623660369923  0.2276152576919779  0.12193280718302127  1.0000
  C   C432      1.0  0.7558752769154976  0.20692860078671668  0.13051573350445164  1.0000
  C   C433      1.0  0.7319204736193906  0.2133346835713136  0.1218157848144576  1.0000
  C   C434      1.0  0.7395753799533386  0.2397327577531663  0.10528841135832065  1.0000
  C   C435      1.0  0.721956857814796  0.26544720650509646  0.04862758567171466  1.0000
  C   C436      1.0  0.69325263728413  0.2663740349936862  0.04600637034656119  1.0000
  C   C437      1.0  0.6929610538633488  0.2950053664067241  0.04972493828535196  1.0000
  C   C438      1.0  0.7218573465800189  0.3230874779158751  0.05178676096956902  1.0000
  C   C439      1.0  0.7505182263695567  0.32188592535501914  0.054317959088135304  1.0000
  C   C440      1.0  0.7500810641127355  0.2924000623455227  0.057689317801517204  1.0000
  H   H257      1.0  0.9072793522654955  0.35643441185129676  0.933577022585668  1.0000
  H   H258      1.0  0.9105455983541428  0.3691245933195228  0.02353850423570014  1.0000
  H   H259      1.0  0.9500916034028407  0.425301418756981  0.017736680944457017  1.0000
  H   H260      1.0  0.9498518104957756  0.41325160848095943  0.9282938698657146  1.0000
  H   H261      1.0  0.8943986699663683  0.30209940541643293  0.04037600840119904  1.0000
  H   H262      1.0  0.9346877886944243  0.2874073014209322  0.05323989587590949  1.0000
  H   H263      1.0  0.9716339992586119  0.30254522054848454  0.9687587474935938  1.0000
  H   H264      1.0  0.9313009863406061  0.31698933927981654  0.9534879713760811  1.0000
  H   H265      1.0  0.8518846568100776  0.35628557174582903  0.00308530893893888  1.0000
  H   H266      1.0  0.8169144568591048  0.3475543076554909  0.04255785402753265  1.0000
  H   H267      1.0  0.7984530130708876  0.25046497164820825  0.048739035546537135  1.0000
  H   H268      1.0  0.8391335256174024  0.2614519475276875  0.01141833034874784  1.0000
  H   H269      1.0  0.7518451921425823  0.3447861396950223  0.14400759815845057  1.0000
  H   H270      1.0  0.741023368226757  0.2979427841668406  0.11882442730888391  1.0000
  H   H271      1.0  0.8407782374957198  0.34586106675440154  0.08946102884674227  1.0000
  H   H272      1.0  0.8499527783599476  0.39488016843896034  0.1145295349212511  1.0000
  H   H273      1.0  0.8200695694103942  0.26939770711053596  0.09845996325861603  1.0000
  H   H274      1.0  0.8067947841343075  0.22328488699399637  0.12820271994851903  1.0000
  H   H275      1.0  0.7067927388511621  0.19794449600846725  0.12930885995613284  1.0000
  H   H276      1.0  0.7199274757788233  0.24434857626649478  0.10090243013068867  1.0000
  H   H277      1.0  0.7204407194768111  0.24191592634156883  0.04964992394652912  1.0000
  H   H278      1.0  0.6705499477827456  0.2432497467555221  0.04460896037763229  1.0000
  H   H279      1.0  0.7226109233494654  0.34626382844520737  0.05313487580155729  1.0000
  H   H280      1.0  0.7715723019431663  0.34436074460875443  0.05965469347867636  1.0000
  C   C441      1.0  0.003498676397517152  0.5582649300771684  0.7884264202302393  1.0000
  C   C442      1.0  0.008090905868758309  0.539178901392017  0.8081273288719483  1.0000
  C   C443      1.0  0.9842921778236685  0.52095651189212  0.8275174638242484  1.0000
  C   C444      1.0  0.9567579136657874  0.5242869776244692  0.8308502437348072  1.0000
  C   C445      1.0  0.9527283219217653  0.5445817378259536  0.8116830085321523  1.0000
  C   C446      1.0  0.9755501623316444  0.5605453453144303  0.7907111426641016  1.0000
  H   H281      1.0  0.030478200642119545  0.5383630733313041  0.80742005082019  1.0000
  H   H282      1.0  0.9877701871859056  0.5050968567929476  0.8413629675041265  1.0000
  H   H283      1.0  0.9313956423152976  0.5474548100688872  0.8116615758639173  1.0000
  H   H284      1.0  0.97105916968461  0.5756266878478443  0.777279289481161  1.0000
  C   C447      1.0  0.9164329594077845  0.548427885236616  0.8695040608968201  1.0000
  C   C448      1.0  0.9043024494238827  0.5159090279287092  0.8613939392366561  1.0000
  C   C449      1.0  0.8715807227843098  0.4950560671170984  0.8659676706380276  1.0000
  C   C450      1.0  0.8517135250229853  0.5059647195225976  0.876488967474641  1.0000
  C   C451      1.0  0.8640746349334506  0.5371417311817815  0.8857628830199711  1.0000
  C   C452      1.0  0.896649659289529  0.5590426126819125  0.8815577935122435  1.0000
  C   C453      1.0  0.9281495652688776  0.5026607551318063  0.8521693188282667  1.0000
  C   C454      1.0  0.9391767266714388  0.4977921574167338  0.8834545846510502  1.0000
  C   C455      1.0  0.918423862951689  0.47150654942085624  0.9005299914339588  1.0000
  C   C456      1.0  0.928684710736887  0.4669630461230527  0.9270550616417255  1.0000
  C   C457      1.0  0.9581968112887164  0.4901563516041788  0.9376856650863379  1.0000
  C   C458      1.0  0.9778294658552463  0.5174481762082968  0.9223955995674136  1.0000
  C   C459      1.0  0.9682037120264636  0.5208062238248714  0.8957890852203534  1.0000
  C   C460      1.0  0.889350362048458  0.4675164269028961  0.811500830852154  1.0000
  C   C461      1.0  0.8675095358174215  0.43817184595449443  0.8002851155647233  1.0000
  C   C462      1.0  0.8636163097661592  0.40917028743554323  0.8117215873349756  1.0000
  C   C463      1.0  0.8879101221520722  0.41209900685027967  0.8302265530891656  1.0000
  C   C464      1.0  0.9113574106079146  0.44192421277705674  0.8398112423239049  1.0000
  C   C465      1.0  0.9096858760004596  0.4698073218729553  0.8333985879879613  1.0000
  C   C466      1.0  0.8291812188693365  0.37684414735642774  0.8108557075382773  1.0000
  C   C467      1.0  0.7937938167785146  0.39893479953027317  0.890430918161577  1.0000
  C   C468      1.0  0.7932765923443433  0.4130742323503629  0.8647374354813325  1.0000
  C   C469      1.0  0.8011597125467725  0.40373610035016677  0.8400019930711973  1.0000
  C   C470      1.0  0.8121588475232073  0.38122501258287544  0.8393654428246147  1.0000
  C   C471      1.0  0.8135600098086533  0.36786468186432  0.8656718998163833  1.0000
  C   C472      1.0  0.8041732223821126  0.37660219201620726  0.8909474454660432  1.0000
  C   C473      1.0  0.8288308271571473  0.34299345881114285  0.8094282918338193  1.0000
  C   C474      1.0  0.8521487880820263  0.33839409390804553  0.7948905129699472  1.0000
  C   C475      1.0  0.8454657367952849  0.30807423162065645  0.786334591810493  1.0000
  C   C476      1.0  0.8158924031483453  0.28149130094924757  0.7922371486424411  1.0000
  C   C477      1.0  0.7938551921827491  0.28544495392573976  0.809201105550527  1.0000
  C   C478      1.0  0.7998642784078442  0.3158323188786601  0.8168225623749307  1.0000
  C   C479      1.0  0.7766441301490957  0.3632854330786072  0.7808499720091294  1.0000
  C   C480      1.0  0.7619508831695327  0.3594206562653642  0.7550493259877096  1.0000
  C   C481      1.0  0.7800111416379776  0.3666787961113821  0.7298702273451074  1.0000
  C   C482      1.0  0.8132466838050117  0.3780388543544939  0.7309890126269799  1.0000
  C   C483      1.0  0.8272748181663012  0.38091604820513497  0.7570747131359269  1.0000
  C   C484      1.0  0.8096011137843893  0.3742558765403743  0.7824167000571157  1.0000
  H   H285      1.0  0.9424894735169839  0.5652593166700333  0.8689253788544722  1.0000
  H   H286      1.0  0.8605687920054559  0.4695531023120795  0.860768105324191  1.0000
  H   H287      1.0  0.8264127968505223  0.48785330875174904  0.8801475239423735  1.0000
  H   H288      1.0  0.9077606885493372  0.5829376108786867  0.889800797715465  1.0000
  H   H289      1.0  0.8937233543260178  0.45426406731201935  0.893943732485311  1.0000
  H   H290      1.0  0.9125538306393124  0.4449360081168628  0.9390509260529141  1.0000
  H   H291      1.0  0.0008993451246256457  0.5365077816840647  0.9306793258402818  1.0000
  H   H292      1.0  0.9840691380993929  0.5427299569219151  0.8841532896355148  1.0000
  H   H293      1.0  0.8876043619473514  0.4878506488971337  0.8041472823806892  1.0000
  H   H294      1.0  0.8506419135206025  0.43749845210395183  0.784583542815685  1.0000
  H   H295      1.0  0.8856712605766707  0.391320775268705  0.8415944403210657  1.0000
  H   H296      1.0  0.928712326429407  0.4433585321433854  0.8557507176903528  1.0000
  H   H297      1.0  0.7841954743564767  0.43016820409780376  0.8642359110446312  1.0000
  H   H298      1.0  0.8005416613597748  0.41561759867088804  0.820744740661955  1.0000
  H   H299      1.0  0.8254160202753899  0.3532361522399044  0.8662763010606133  1.0000
  H   H300      1.0  0.8039112303323949  0.36512220007098395  0.9104511735599892  1.0000
  H   H301      1.0  0.8734060360154141  0.36001427847143647  0.7886900420495311  1.0000
  H   H302      1.0  0.8616815625332775  0.30509450685369377  0.7717025092063864  1.0000
  H   H303      1.0  0.7704146253479985  0.2652019100943505  0.8154251524060019  1.0000
  H   H304      1.0  0.7804542097710973  0.31906392455956206  0.8258071368990868  1.0000
  H   H305      1.0  0.761540545825028  0.3560079806193152  0.8006430411242496  1.0000
  H   H306      1.0  0.7356082608313369  0.3493252565785669  0.7544856468131261  1.0000
  H   H307      1.0  0.8277663198146142  0.38427857790534503  0.7109794735626854  1.0000
  H   H308      1.0  0.8527029645298951  0.3886319940772911  0.7570747131359269  1.0000
  C   C485      1.0  0.8242531720157064  0.5459428835013661  0.9576823445496914  1.0000
  C   C486      1.0  0.8457824978111931  0.570107554708677  0.9752507027020073  1.0000
  C   C487      1.0  0.835263511103796  0.5840152162698183  0.9949344652091282  1.0000
  C   C488      1.0  0.8023263681117184  0.574611318290055  0.9980293425022775  1.0000
  C   C489      1.0  0.7804632411871891  0.5471699860739069  0.9826706924450009  1.0000
  C   C490      1.0  0.7914783932694625  0.5340339858250135  0.962001027199065  1.0000
  H   H309      1.0  0.8712357116814947  0.5779693795367613  0.9729766966022626  1.0000
  H   H310      1.0  0.8533530110781609  0.6036122310646448  0.007305401314431137  1.0000
  H   H311      1.0  0.7545028073992883  0.5364987186659661  0.9851204464242734  1.0000
  H   H312      1.0  0.7739822408078864  0.5136130541214312  0.9494414836132932  1.0000
  C   C491      1.0  0.7519365849701447  0.596025422457073  0.9818712539198314  1.0000
  C   C492      1.0  0.7595213638538878  0.5945357223973842  0.010245963396287694  1.0000
  C   C493      1.0  0.7416520689870397  0.6005621831723221  0.03067129622434317  1.0000
  C   C494      1.0  0.7138909491144925  0.6017461834016725  0.023315604486054964  1.0000
  C   C495      1.0  0.7056770998119171  0.6000017225943461  0.9952130898961845  1.0000
  C   C496      1.0  0.7243521811144374  0.5968126325982172  0.9742240778935458  1.0000
  C   C497      1.0  0.7905699526397847  0.5925512325529176  0.020237873327493716  1.0000
  C   C498      1.0  0.8154818694924902  0.6308059644344378  0.021155191527956196  1.0000
  C   C499      1.0  0.8237374270766656  0.6488891583138371  0.04645859964632204  1.0000
  C   C500      1.0  0.8460240160697381  0.6818929698909988  0.04734591211125516  1.0000
  C   C501      1.0  0.8604144402306945  0.697921002718362  0.022908383789587816  1.0000
  C   C502      1.0  0.8514845822809487  0.6812834667500339  0.9970177205615804  1.0000
  C   C503      1.0  0.8295684405289206  0.6487076218225102  0.9962954396420575  1.0000
  C   C504      1.0  0.7579002849802341  0.5510068679273149  0.06000404597090858  1.0000
  C   C505      1.0  0.7558071059170812  0.5381339625866917  0.0866334169264848  1.0000
  C   C506      1.0  0.7831079672355202  0.5476442221768569  0.1035225738224303  1.0000
  C   C507      1.0  0.8127488901476964  0.5662032455417267  0.09002620830810201  1.0000
  C   C508      1.0  0.8148898890130916  0.5795776433553048  0.06377405231346356  1.0000
  C   C509      1.0  0.7872398312783232  0.5732130545942512  0.04859972320300887  1.0000
  C   C510      1.0  0.7792298260806497  0.5348983378545612  0.1360232862608267  1.0000
  C   C511      1.0  0.6858136690494364  0.5153849939505196  0.17513597684975316  1.0000
  C   C512      1.0  0.6995116735385413  0.4963602378328891  0.18184311604724707  1.0000
  C   C513      1.0  0.729188372176566  0.5028246145723246  0.17074313716828593  1.0000
  C   C514      1.0  0.7459397609863229  0.5281586571315926  0.1514968154198435  1.0000
  C   C515      1.0  0.7339324725179839  0.5490883975039059  0.14739846059992662  1.0000
  C   C516      1.0  0.7039454358015289  0.54230757226316  0.15826910992877213  1.0000
  C   C517      1.0  0.8057721543091177  0.5584799407923624  0.15818187896905528  1.0000
  C   C518      1.0  0.8279481764156053  0.5908702270013749  0.15239398691216502  1.0000
  C   C519      1.0  0.8589057167165681  0.605255857565782  0.1634013766643505  1.0000
  C   C520      1.0  0.8663195972011827  0.5892395303197107  0.18382542353231196  1.0000
  C   C521      1.0  0.8415516805506378  0.5612046096219421  0.19526811077635248  1.0000
  C   C522      1.0  0.8114857500516935  0.546078359644765  0.1827529328138273  1.0000
  C   C523      1.0  0.8134926358233323  0.5050160194348631  0.12913804159029904  1.0000
  C   C524      1.0  0.8175209916355437  0.47889090974127024  0.12381073757378121  1.0000
  C   C525      1.0  0.7909884229582347  0.449470360174302  0.11780166038070468  1.0000
  C   C526      1.0  0.7601157851832  0.4467514655495462  0.11664686821619719  1.0000
  C   C527      1.0  0.7564590776831336  0.47333598384020026  0.12209741007506687  1.0000
  C   C528      1.0  0.7833197290540594  0.5031585175738849  0.1292801401806978  1.0000
  H   H313      1.0  0.7674899098859336  0.5953570975256061  0.9654624031190346  1.0000
  H   H314      1.0  0.749453359578504  0.6039655454909094  0.05260977542979717  1.0000
  H   H315      1.0  0.699345687239507  0.6056892917734353  0.039240076984738304  1.0000
  H   H316      1.0  0.718001754392932  0.5952372737971928  0.952030549936094  1.0000
  H   H317      1.0  0.8115572652884336  0.6379305788160706  0.06649600117932208  1.0000
  H   H318      1.0  0.8506679691358998  0.694877328987658  0.06746125221013584  1.0000
  H   H319      1.0  0.8603036784412906  0.6941484060927284  0.976928880624816  1.0000
  H   H320      1.0  0.8230343280080928  0.6361718840715092  0.9757457973382382  1.0000
  H   H321      1.0  0.7361208945638604  0.5431636880606058  0.047307333308432176  1.0000
  H   H322      1.0  0.731039223180487  0.521740085198516  0.09508410368490457  1.0000
  H   H323      1.0  0.8361035028962605  0.5730917453101378  0.10033317846236427  1.0000
  H   H324      1.0  0.8385455122145564  0.5962832421112535  0.054819483524836565  1.0000
  H   H325      1.0  0.686452547037025  0.4760220481066445  0.19567854637305476  1.0000
  H   H326      1.0  0.739378782494761  0.48762883041745886  0.1763338486774132  1.0000
  H   H327      1.0  0.7474248696129233  0.5710124341867147  0.13508474971881143  1.0000
  H   H328      1.0  0.6946722800866219  0.5593507441489334  0.1555079392800435  1.0000
  H   H329      1.0  0.8227072147938899  0.6037493250941962  0.13604707652256767  1.0000
  H   H330      1.0  0.8778248387364395  0.6281878424413453  0.15497490882103643  1.0000
  H   H331      1.0  0.8473321838440219  0.548612291033745  0.21167696157714927  1.0000
  H   H332      1.0  0.7933807993031232  0.5228035419143012  0.19105573416142482  1.0000
  H   H333      1.0  0.8346295787468179  0.528117667518594  0.13377242744277593  1.0000
  H   H334      1.0  0.841655694458606  0.48191509638803404  0.12550970518477803  1.0000
  H   H335      1.0  0.7388304974210831  0.4240167544667993  0.1120778520018374  1.0000
  H   H336      1.0  0.7323893897462681  0.47048237048069896  0.12057869120392731  1.0000
  C   C529      1.0  0.36691170913683996  0.5601540656147092  0.7201247930986051  1.0000
  C   C530      1.0  0.3604541343923201  0.5323455344673347  0.7053919769537934  1.0000
  C   C531      1.0  0.3387222354886049  0.522484307484355  0.6834599275488099  1.0000
  C   C532      1.0  0.32118411825175225  0.5383816266598666  0.6769808319413376  1.0000
  C   C533      1.0  0.3269858839366105  0.5648897377048403  0.6936961698978964  1.0000
  C   C534      1.0  0.34925909796663934  0.5756800777043953  0.7152852966111183  1.0000
  H   H337      1.0  0.37595459006483095  0.5212026648190071  0.709252000502936  1.0000
  H   H338      1.0  0.33717283735417874  0.5025278902493894  0.6703281317211608  1.0000
  H   H339      1.0  0.31571976418510234  0.5789064587646288  0.6885137507186478  1.0000
  H   H340      1.0  0.354469737658359  0.5982630769103354  0.72724043895266  1.0000
  C   C535      1.0  0.25287748966731477  0.5342389970130462  0.6671368074209536  1.0000
  C   C536      1.0  0.2733246948087739  0.5373548110936455  0.6446067865722107  1.0000
  C   C537      1.0  0.2650000765406693  0.5423627885482694  0.6174966045216257  1.0000
  C   C538      1.0  0.2373645934456515  0.5438285338210613  0.6124706438204934  1.0000
  C   C539      1.0  0.21747854531204097  0.5413434936551484  0.6347820514532383  1.0000
  C   C540      1.0  0.22543098215120355  0.5373248728821601  0.6621730014577031  1.0000
  C   C541      1.0  0.3044209951301767  0.5325289016262675  0.6468979388065434  1.0000
  C   C542      1.0  0.28712696863227627  0.49598968992942555  0.636959610545925  1.0000
  C   C543      1.0  0.2859207046782972  0.48732566816620987  0.608010505560768  1.0000
  C   C544      1.0  0.2719637768309846  0.45561998851484775  0.6005369341471867  1.0000
  C   C545      1.0  0.258375842003331  0.4317380912819568  0.6204907482740699  1.0000
  C   C546      1.0  0.2568884929580987  0.4390909264302968  0.6487625809429977  1.0000
  C   C547      1.0  0.2706360992550355  0.4711844809299997  0.656782685396574  1.0000
  C   C548      1.0  0.34264533464664026  0.589061143426009  0.6250901988773235  1.0000
  C   C549      1.0  0.36522829884798813  0.609002695573841  0.605588614050201  1.0000
  C   C550      1.0  0.38129606267561295  0.5976087074641097  0.5874480036560077  1.0000
  C   C551      1.0  0.3790782320136386  0.5687686546692907  0.5953973803044084  1.0000
  C   C552      1.0  0.35579447703183986  0.5482531323318885  0.6146439163795331  1.0000
  C   C553      1.0  0.334716617942678  0.5571006239780333  0.6277435632048296  1.0000
  C   C554      1.0  0.3985991425501838  0.6161658214804923  0.5578473455565034  1.0000
  C   C555      1.0  0.3688595361476739  0.6852807016687683  0.5273893807275949  1.0000
  C   C556      1.0  0.3992568463235451  0.6908336150468755  0.5207131045723596  1.0000
  C   C557      1.0  0.4088306817816642  0.6688610726261682  0.5291747219915792  1.0000
  C   C558      1.0  0.387357417530468  0.6411324233373582  0.5453478134417898  1.0000
  C   C559      1.0  0.3558618175106022  0.6361306070459467  0.5488563412318767  1.0000
  C   C560      1.0  0.3468161504707249  0.6577843966671922  0.5409798356554754  1.0000
  C   C561      1.0  0.38739640771461414  0.5864658779030256  0.535538081190582  1.0000
  C   C562      1.0  0.407217400480276  0.5730995804441873  0.5281759596518233  1.0000
  C   C563      1.0  0.395650638630413  0.5459925740466431  0.5110019625950332  1.0000
  C   C564      1.0  0.36369991600557156  0.5300388388980498  0.5025832105122838  1.0000
  C   C565      1.0  0.3436348920162216  0.5415119077902806  0.511861412591261  1.0000
  C   C566      1.0  0.3550040540266612  0.5695413053088129  0.5273229394560661  1.0000
  C   C567      1.0  0.4605479872662036  0.6452457962159038  0.5419850277957018  1.0000
  C   C568      1.0  0.4920425151161246  0.6711190031070317  0.5444304952413274  1.0000
  C   C569      1.0  0.5005725898682661  0.6914376624652183  0.5677513815479457  1.0000
  C   C570      1.0  0.4781113584880689  0.6844467318043543  0.5898484624983396  1.0000
  C   C571      1.0  0.4471473751408412  0.6580757107952439  0.587424427720949  1.0000
  C   C572      1.0  0.436961538412366  0.6383492652058366  0.5632055126152797  1.0000
  H   H341      1.0  0.2578295597736728  0.5302954331401665  0.6890302780231139  1.0000
  H   H342      1.0  0.28027799016934274  0.5444273032395635  0.5997182062206056  1.0000
  H   H343      1.0  0.23191955237801595  0.5479554251513629  0.5909522449124475  1.0000
  H   H344      1.0  0.2107283325163061  0.5370958931028239  0.6805493712024826  1.0000
  H   H345      1.0  0.29750245248175733  0.5054423478721851  0.5913123137387972  1.0000
  H   H346      1.0  0.272655916088844  0.4501532849512944  0.5781569419760895  1.0000
  H   H347      1.0  0.2462551258309286  0.420619873084328  0.6655293573033206  1.0000
  H   H348      1.0  0.26964908025958156  0.47711454681309406  0.678997646022261  1.0000
  H   H349      1.0  0.3298446415400655  0.5990980443794296  0.6372082294974521  1.0000
  H   H350      1.0  0.3675290023694049  0.6324920408415413  0.6029652554582241  1.0000
  H   H351      1.0  0.3944086770472493  0.5606292253883297  0.5850411150132053  1.0000
  H   H352      1.0  0.3526206738441821  0.5246683561997045  0.618589670601616  1.0000
  H   H353      1.0  0.41578096928171354  0.7123908713692751  0.5091587531268141  1.0000
  H   H354      1.0  0.43228070850575173  0.6735880298940606  0.5208845659182404  1.0000
  H   H355      1.0  0.33644006207531735  0.6143104374289754  0.5594397928063718  1.0000
  H   H356      1.0  0.32114887364184963  0.65162268121616  0.5432624148225141  1.0000
  H   H357      1.0  0.43257507188998984  0.5830312374878945  0.5346121899228256  1.0000
  H   H358      1.0  0.4124649655617282  0.5375808332611554  0.5059738586270776  1.0000
  H   H359      1.0  0.3183515010010591  0.5272835504106057  0.5084128962722325  1.0000
  H   H360      1.0  0.3361552432815155  0.5750079464760093  0.5341878230917704  1.0000
  H   H361      1.0  0.45471633119929294  0.633380222180202  0.5213860903549419  1.0000
  H   H362      1.0  0.5086492267029787  0.6756302358634704  0.5269800167643045  1.0000
  H   H363      1.0  0.48400558255861154  0.6991097525905197  0.6087692220162907  1.0000
  H   H364      1.0  0.43017386894326115  0.654100989938232  0.6048020351259726  1.0000
  C   C573      1.0  0.09398248796120634  0.618707809096815  0.7721847442416763  1.0000
  C   C574      1.0  0.10562610169966788  0.5985576100349173  0.7809099834801878  1.0000
  C   C575      1.0  0.13650893603009862  0.6059231251401457  0.7744887560769502  1.0000
  C   C576      1.0  0.15618885447362055  0.6318281879302299  0.7561059565317001  1.0000
  C   C577      1.0  0.14329321314143623  0.6507637835836775  0.7465234105637845  1.0000
  C   C578      1.0  0.11353507239687598  0.6456595196838214  0.7560888103971121  1.0000
  H   H365      1.0  0.09093406261247321  0.5759870527882567  0.7922928735798523  1.0000
  H   H366      1.0  0.14427261079401235  0.5895403773567415  0.7826160238717021  1.0000
  H   H367      1.0  0.15751545730272076  0.6717030373406959  0.7330636949121382  1.0000
  H   H368      1.0  0.1046293544680464  0.6607518003441436  0.7476957775162448  1.0000
  C   C579      1.0  0.2142548999127741  0.6883691942669236  0.7107522872793934  1.0000
  C   C580      1.0  0.21567282232850724  0.6740159360098834  0.7364136209572852  1.0000
  C   C581      1.0  0.24219880856022244  0.6943067201467144  0.7539412570399545  1.0000
  C   C582      1.0  0.2648330199823831  0.7249193734724659  0.7458825737835548  1.0000
  C   C583      1.0  0.2624063961692322  0.7381423943689414  0.7207099049414234  1.0000
  C   C584      1.0  0.23672158470249002  0.7193760880562032  0.7029465095081678  1.0000
  C   C585      1.0  0.1910113757657075  0.6362547532646428  0.7449609690494453  1.0000
  C   C586      1.0  0.1827393022043058  0.6121317682802655  0.7174478528360403  1.0000
  C   C587      1.0  0.20372665452520083  0.6206756188431435  0.6941162501953044  1.0000
  C   C588      1.0  0.1976210827005252  0.5995576688564785  0.6714897823395035  1.0000
  C   C589      1.0  0.17170678218175028  0.5690797346448678  0.6721649113889093  1.0000
  C   C590      1.0  0.1500725794751312  0.5609901127096694  0.6947420841077696  1.0000
  C   C591      1.0  0.15593450403813988  0.5814980048176922  0.7172228098195716  1.0000
  C   C592      1.0  0.208417554083142  0.6300601910286064  0.7956470861586464  1.0000
  C   C593      1.0  0.23022218127923785  0.6288099120820747  0.8136248082742529  1.0000
  C   C594      1.0  0.25608651576734953  0.6248604891599014  0.8034335745284603  1.0000
  C   C595      1.0  0.2561263823177815  0.6183374259194194  0.7748938335065937  1.0000
  C   C596      1.0  0.2340710497807022  0.6189721177454602  0.7565560425646374  1.0000
  C   C597      1.0  0.2093845063262037  0.6253081561590044  0.7664965140920793  1.0000
  C   C598      1.0  0.28669573973841195  0.6349274154900093  0.8235802826694595  1.0000
  C   C599      1.0  0.33769287568991785  0.7323112707513462  0.7866153597643729  1.0000
  C   C600      1.0  0.31729751596775874  0.7263102409813669  0.809166813281351  1.0000
  C   C601      1.0  0.3033849978673708  0.6966833372029542  0.8225536578609979  1.0000
  C   C602      1.0  0.3083901094105427  0.6721159748422374  0.8128832379533183  1.0000
  C   C603      1.0  0.33024873513607667  0.6796510628208128  0.7900531597492838  1.0000
  C   C604      1.0  0.345217799112371  0.7090220406826658  0.7779244127950375  1.0000
  C   C605      1.0  0.30695186755017284  0.6165729265482841  0.8194244882986725  1.0000
  C   C606      1.0  0.2945578313836346  0.5857308588219128  0.8085324063015918  1.0000
  C   C607      1.0  0.3137381429611071  0.5711101155142023  0.8069721080540762  1.0000
  C   C608      1.0  0.34500472849421676  0.5868756460566297  0.8181085224690371  1.0000
  C   C609      1.0  0.3567274028840262  0.6172796394326258  0.829484982768231  1.0000
  C   C610      1.0  0.3385649516460531  0.6322702622131453  0.8297250286524641  1.0000
  C   C611      1.0  0.2899477777155594  0.6492432490975991  0.8789515810548546  1.0000
  C   C612      1.0  0.27980371648267327  0.6419279262130169  0.9068076199600213  1.0000
  C   C613      1.0  0.2545490193727809  0.6112532420659057  0.9136725035957255  1.0000
  C   C614      1.0  0.240877298402474  0.5882128821922483  0.8921755373559147  1.0000
  C   C615      1.0  0.25184207040076134  0.5961193910876726  0.8646431317410982  1.0000
  C   C616      1.0  0.27551849989957605  0.6274438653714403  0.8566530330230507  1.0000
  H   H369      1.0  0.1947429277894561  0.6747188601322925  0.6956808349764672  1.0000
  H   H370      1.0  0.24642348483563825  0.6870865083165305  0.774949558444005  1.0000
  H   H371      1.0  0.2824737616723491  0.7402886082283564  0.7607589888055416  1.0000
  H   H372      1.0  0.23487726671554474  0.729041738148435  0.682632626554935  1.0000
  H   H373      1.0  0.226552843990298  0.642966585814641  0.692712410425905  1.0000
  H   H374      1.0  0.21447311612502623  0.6070131683136197  0.6534863410220149  1.0000
  H   H375      1.0  0.12855990079868881  0.5373932802803978  0.6971661188851599  1.0000
  H   H376      1.0  0.1390045367614727  0.5714533981870022  0.7344118097441263  1.0000
  H   H377      1.0  0.19143207863356818  0.6367738316939534  0.8044066176663339  1.0000
  H   H378      1.0  0.22961535810506975  0.6367103066676923  0.8352760897253565  1.0000
  H   H379      1.0  0.27699088585960474  0.6174612962173698  0.7665715284309023  1.0000
  H   H380      1.0  0.23733873029839894  0.6152280805003638  0.7344075232104793  1.0000
  H   H381      1.0  0.3101981423271481  0.7439333959500184  0.817101187061987  1.0000
  H   H382      1.0  0.28579684891657503  0.6919457391637889  0.839845534593081  1.0000
  H   H383      1.0  0.3348382514658361  0.6617642353520939  0.7809056969465408  1.0000
  H   H384      1.0  0.36046319666322735  0.7118315279785563  0.7591686848224968  1.0000
  H   H385      1.0  0.27056436341793877  0.5736144089828926  0.7993249320277904  1.0000
  H   H386      1.0  0.304412695255831  0.5478203243432581  0.7973274073482787  1.0000
  H   H387      1.0  0.3809556910290594  0.630409830169916  0.8382295114081542  1.0000
  H   H388      1.0  0.34865795340940675  0.6563051939545035  0.8384459813573286  1.0000
  H   H389      1.0  0.30925878771973  0.6735711502103858  0.8734390987847854  1.0000
  H   H390      1.0  0.29223235494724054  0.6602268086963111  0.9226656511871759  1.0000
  H   H391      1.0  0.22255808630119317  0.5636709035973518  0.8968007071610505  1.0000
  H   H392      1.0  0.24047471384226585  0.5769433486529731  0.848656504504533  1.0000
  C   C617      1.0  0.5598496994366943  0.04333968709844882  0.8844747796590413  1.0000
  C   C618      1.0  0.5319554189239045  0.03110315227580518  0.8679501924497749  1.0000
  C   C619      1.0  0.5319104920982154  0.018599624984207086  0.8414058328405967  1.0000
  C   C620      1.0  0.5593271592609904  0.018588958094025276  0.8294806962345841  1.0000
  C   C621      1.0  0.5873160521941143  0.03158285774998837  0.8466568365581977  1.0000
  C   C622      1.0  0.5870478438837299  0.04360250824498202  0.8737948810774883  1.0000
  H   H393      1.0  0.5098692484556449  0.030038483771750668  0.8761846235857025  1.0000
  H   H394      1.0  0.5095496521411068  0.008773069408862577  0.8297593209216404  1.0000
  H   H395      1.0  0.6094255594729551  0.03245381908769218  0.8393847322260263  1.0000
  H   H396      1.0  0.6086266961000638  0.05454025482150726  0.8866244762830223  1.0000
  C   C623      1.0  0.6127599235736471  0.03711109029560444  0.7786488369813841  1.0000
  C   C624      1.0  0.5890462311385112  0.005837524426054674  0.7866089299639024  1.0000
  C   C625      1.0  0.5940453660663961  0.9802839497038076  0.7776607909757459  1.0000
  C   C626      1.0  0.6219773239710816  0.9865079898602421  0.7627200779490537  1.0000
  C   C627      1.0  0.643814918495323  0.017502105195851714  0.7539369705063075  1.0000
  C   C628      1.0  0.6395399736394364  0.04296219380848343  0.7625036079998793  1.0000
  C   C629      1.0  0.5550404596999546  0.9992742603749086  0.8002529665623705  1.0000
  C   C630      1.0  0.541747024668623  0.012846565836403867  0.7757125614331747  1.0000
  C   C631      1.0  0.5307356369334074  0.9951115949780571  0.75070278086963  1.0000
  C   C632      1.0  0.5176090596165478  0.004288668493675152  0.7287085767267647  1.0000
  C   C633      1.0  0.5162745292079185  0.03258864660091465  0.7313169324509772  1.0000
  C   C634      1.0  0.5305802095679033  0.05247637312955811  0.7543013258663044  1.0000
  C   C635      1.0  0.5433850762859194  0.04296840663091528  0.7761069225287006  1.0000
  C   C636      1.0  0.5406463938963452  0.9482667334819267  0.8304065875023405  1.0000
  C   C637      1.0  0.518681816150442  0.9203233615294011  0.8439370309591626  1.0000
  C   C638      1.0  0.48548326764212896  0.9046560003693161  0.8377751388415698  1.0000
  C   C639      1.0  0.476137178613527  0.9180855913508867  0.8165182184859922  1.0000
  C   C640      1.0  0.49776056193752016  0.9466792911235516  0.803583603206106  1.0000
  C   C641      1.0  0.5307202009517568  0.9630773284093039  0.8104056215053401  1.0000
  C   C642      1.0  0.45940837359790965  0.877562344875129  0.8597243343811414  1.0000
  C   C643      1.0  0.49400249559676535  0.8206100976356145  0.9079242619750703  1.0000
  C   C644      1.0  0.4709514570228833  0.8272794041652775  0.9195857767617912  1.0000
  C   C645      1.0  0.4588801638392032  0.8436267553144469  0.9040406624908692  1.0000
  C   C646      1.0  0.47219658219627236  0.856641768724161  0.8775927498887489  1.0000
  C   C647      1.0  0.4939761594125655  0.8481739958919868  0.865536874006502  1.0000
  C   C648      1.0  0.5034401312087968  0.8291706259505492  0.8798410367866115  1.0000
  C   C649      1.0  0.4284802203036151  0.851848042054347  0.8405656722457805  1.0000
  C   C650      1.0  0.40487939209979973  0.8597070141478166  0.8319583126825623  1.0000
  C   C651      1.0  0.37972026911534307  0.8394321122800987  0.8148486136304774  1.0000
  C   C652      1.0  0.37825024718839756  0.8117549457363262  0.8032835458508144  1.0000
  C   C653      1.0  0.4014875734005155  0.8040538685840766  0.8111257591580396  1.0000
  C   C654      1.0  0.42536680786305514  0.8231304055928568  0.8294592635663488  1.0000
  C   C655      1.0  0.4189741445050007  0.8846913651368856  0.894074471761545  1.0000
  C   C656      1.0  0.41067061620281  0.9024675254250784  0.9120800563458572  1.0000
  C   C657      1.0  0.43325854134801434  0.9330137798697248  0.9208031523175452  1.0000
  C   C658      1.0  0.4644294483909348  0.9462376659427321  0.9106269214395171  1.0000
  C   C659      1.0  0.4731714815126252  0.9291536383344486  0.8918326146641531  1.0000
  C   C660      1.0  0.4502854664017482  0.8983610481463956  0.8820035930115335  1.0000
  H   H397      1.0  0.6089763391390137  0.05670176557830908  0.7851236460552096  1.0000
  H   H398      1.0  0.5749203204038849  0.9557211406632448  0.7810642986914806  1.0000
  H   H399      1.0  0.6257590749881959  0.9666641229516223  0.7568260941843997  1.0000
  H   H400      1.0  0.6559012460576901  0.06700869943959531  0.7563224264808748  1.0000
  H   H401      1.0  0.5298522292023566  0.9716139721619993  0.749136052821644  1.0000
  H   H402      1.0  0.5084214060365185  0.9885708776622475  0.709558487658698  1.0000
  H   H403      1.0  0.5307628306180145  0.0757625704926533  0.7567382202446358  1.0000
  H   H404      1.0  0.555068350943601  0.05904813915991158  0.7937288623516044  1.0000
  H   H405      1.0  0.5659680164033354  0.9611172216401173  0.8374729382194548  1.0000
  H   H406      1.0  0.5274675571376202  0.9123778043264342  0.8621119336225322  1.0000
  H   H407      1.0  0.45116748410740454  0.9090971526109508  0.8103648994356935  1.0000
  H   H408      1.0  0.4878148561034202  0.9574389574789532  0.790595406255632  1.0000
  H   H409      1.0  0.46346244750238225  0.8203915768545786  0.9412584908811299  1.0000
  H   H410      1.0  0.4397152104695129  0.8472582550918644  0.9143069105754847  1.0000
  H   H411      1.0  0.5029446566747043  0.8555020171852458  0.8432811913111684  1.0000
  H   H412      1.0  0.5189866015039155  0.8224114748101965  0.8689596711236484  1.0000
  H   H413      1.0  0.4052301091547611  0.8817958399632345  0.8388982106570894  1.0000
  H   H414      1.0  0.36135592227969154  0.8457664220763754  0.8087424464502958  1.0000
  H   H415      1.0  0.40235867958871935  0.7828348930405482  0.8035321648023417  1.0000
  H   H416      1.0  0.442593332545102  0.8152988539594048  0.8336429204058414  1.0000
  H   H417      1.0  0.4015487910870099  0.8602129478615416  0.8895350326293497  1.0000
  H   H418      1.0  0.38534081254017427  0.8912269409628805  0.9196329286319085  1.0000
  H   H419      1.0  0.48292896732254487  0.9701347768601921  0.9172196101886355  1.0000
  H   H420      1.0  0.49805439961175907  0.9414163854045778  0.8857285907507949  1.0000
  C   C661      1.0  0.3318160589416049  0.8143251993988039  0.6818696235657651  1.0000
  C   C662      1.0  0.31397379818600796  0.8258129147016195  0.6671539535555416  1.0000
  C   C663      1.0  0.329065369456482  0.85600679841444  0.6556660433815251  1.0000
  C   C664      1.0  0.3626517204225995  0.8764321630655432  0.658793069677027  1.0000
  C   C665      1.0  0.38004833540424426  0.8647287244084711  0.6736459087639551  1.0000
  C   C666      1.0  0.3648753256976604  0.8340008010601928  0.6844458302876248  1.0000
  H   H421      1.0  0.2880853714987063  0.8107101756215958  0.6652378730153232  1.0000
  H   H422      1.0  0.3141803156327782  0.8635383437607611  0.6433272562785749  1.0000
  H   H423      1.0  0.40679106766962525  0.8795553250476115  0.6742460234745381  1.0000
  H   H424      1.0  0.3792965125989293  0.8252690226893101  0.6943134307430674  1.0000
  C   C667      1.0  0.4181783190066368  0.9442846521712954  0.6819617840391761  1.0000
  C   C668      1.0  0.4129696072796893  0.9385203308909705  0.6529633839170783  1.0000
  C   C669      1.0  0.4355882067979784  0.9611340964201718  0.6344455585619472  1.0000
  C   C670      1.0  0.46072763750088014  0.9889905087555652  0.6443088724837427  1.0000
  C   C671      1.0  0.4650385608784865  0.9954679039224723  0.6730007854500785  1.0000
  C   C672      1.0  0.4440165253711677  0.9726538807529007  0.6919408343694412  1.0000
  C   C673      1.0  0.3802244687016407  0.9092120626094032  0.640935370503537  1.0000
  C   C674      1.0  0.35927114346439354  0.9270993728553453  0.6424892389505822  1.0000
  C   C675      1.0  0.35746411718398885  0.9437643505651001  0.6190268970336122  1.0000
  C   C676      1.0  0.3403156252958532  0.9599082615635264  0.6199334988999572  1.0000
  C   C677      1.0  0.32641469116132843  0.9623273299795196  0.6455305345731437  1.0000
  C   C678      1.0  0.3286078264757068  0.9466717901730871  0.6694815413258741  1.0000
  C   C679      1.0  0.3446953548254971  0.9290877234380418  0.6678183662708299  1.0000
  C   C680      1.0  0.41199115096932953  0.8929580332209607  0.6049006253998541  1.0000
  C   C681      1.0  0.4163228110392302  0.882812481046715  0.5782662485840885  1.0000
  C   C682      1.0  0.39220510028708283  0.8722332490864809  0.5581666923132065  1.0000
  C   C683      1.0  0.36253951768667614  0.8683584763136815  0.5671405505032452  1.0000
  C   C684      1.0  0.35905505955567124  0.8807854476786129  0.5925061133594925  1.0000
  C   C685      1.0  0.384320709302103  0.8943805439152803  0.6116497726270889  1.0000
  C   C686      1.0  0.3972620151536182  0.8635341201688356  0.5265406470654848  1.0000
  C   C687      1.0  0.4938153485293477  0.9251787039634952  0.48922208513451904  1.0000
  C   C688      1.0  0.4767233418903842  0.8928197103490566  0.48252437631104855  1.0000
  C   C689      1.0  0.44605640484060094  0.873780316063392  0.493084251950485  1.0000
  C   C690      1.0  0.43231306671550335  0.8853227365952113  0.5128644614646639  1.0000
  C   C691      1.0  0.4494696283542442  0.9184388059488966  0.5185719810156725  1.0000
  C   C692      1.0  0.4792503012341527  0.9382305159189704  0.506278202516016  1.0000
  C   C693      1.0  0.37615596563011316  0.8708360507127535  0.5044842881847377  1.0000
  C   C694      1.0  0.37227094922717974  0.8980977929440824  0.5090387301846976  1.0000
  C   C695      1.0  0.3485797723469442  0.9012911346616722  0.49497032675517433  1.0000
  C   C696      1.0  0.3298037647388846  0.878588974187672  0.47521797970970103  1.0000
  C   C697      1.0  0.33717225184758703  0.8549637351864623  0.4670307004438908  1.0000
  C   C698      1.0  0.36095556787561367  0.8518426561892414  0.4809083531261215  1.0000
  C   C699      1.0  0.35217000174054613  0.8029460188834695  0.5313201320819133  1.0000
  C   C700      1.0  0.34266814275323987  0.7708436113473918  0.5375206030023293  1.0000
  C   C701      1.0  0.36538828097704507  0.762155763994231  0.544357624169328  1.0000
  C   C702      1.0  0.39693677127242605  0.7851441920999707  0.548513418540115  1.0000
  C   C703      1.0  0.4066504289417172  0.8163878748413175  0.5418671481204087  1.0000
  C   C704      1.0  0.38536508841345135  0.826155406842626  0.5315858971680286  1.0000
  H   H425      1.0  0.3998540079252501  0.9272505630185455  0.6969174999336326  1.0000
  H   H426      1.0  0.4316460424818909  0.9574939451495172  0.6113475720049739  1.0000
  H   H427      1.0  0.47644388360852746  0.007260407620130582  0.6284529845234116  1.0000
  H   H428      1.0  0.44538673710415505  0.9763965207152611  0.7151931361377073  1.0000
  H   H429      1.0  0.3706088750161471  0.9444489798665  0.5995746073434304  1.0000
  H   H430      1.0  0.33925491871588387  0.9721187683872322  0.601038458583888  1.0000
  H   H431      1.0  0.3170717203739122  0.9470113120020328  0.68946750445511  1.0000
  H   H432      1.0  0.3442210912059432  0.9158152478434306  0.686511939505489  1.0000
  H   H433      1.0  0.43225681423030027  0.9009403674637264  0.6193762495258445  1.0000
  H   H434      1.0  0.4384104390022798  0.8825648415028309  0.5736453653125997  1.0000
  H   H435      1.0  0.34130552813223414  0.8567053479038075  0.553106439342898  1.0000
  H   H436      1.0  0.335882735865149  0.8799581015828937  0.596646904862515  1.0000
  H   H437      1.0  0.48694195937565843  0.8823283283370644  0.46720644832341857  1.0000
  H   H438      1.0  0.4326366965500649  0.8484659624382509  0.48607148290395846  1.0000
  H   H439      1.0  0.4393391355484471  0.9300182102393559  0.5315558914324995  1.0000
  H   H440      1.0  0.4907979240333081  0.9641223261254563  0.5100096300557478  1.0000
  H   H441      1.0  0.3833489343233129  0.9148892220399568  0.5259148131530197  1.0000
  H   H442      1.0  0.3426848083446682  0.9200538351743339  0.5015115771005285  1.0000
  H   H443      1.0  0.3247598812083142  0.8385466499983955  0.44948377495980985  1.0000
  H   H444      1.0  0.3654475513868041  0.8320979656864044  0.47411205402876955  1.0000
  H   H445      1.0  0.3338551235492809  0.8091612119506969  0.5244038100424447  1.0000
  H   H446      1.0  0.3174169875529329  0.7516775272764233  0.5355573705919937  1.0000
  H   H447      1.0  0.4141601350627296  0.7789232415502486  0.5566921247386313  1.0000
  H   H448      1.0  0.4322846278156156  0.8337940729115799  0.5441218648187418  1.0000
  C   C705      1.0  0.61797514954651  0.6118968717157554  0.7796475993211401  1.0000
  C   C706      1.0  0.629522188902067  0.6446167994257236  0.7860452507893191  1.0000
  C   C707      1.0  0.6078590079323725  0.6555425929760696  0.7904132285756337  1.0000
  C   C708      1.0  0.5745723663713037  0.6352583510675391  0.788143509009536  1.0000
  C   C709      1.0  0.563448937980425  0.6027604151961397  0.7836083564109876  1.0000
  C   C710      1.0  0.5845970432269688  0.5909460000927282  0.7785545332411498  1.0000
  H   H449      1.0  0.654872354158987  0.6613633277063716  0.787048299662722  1.0000
  H   H450      1.0  0.6179537414131875  0.6817650408575378  0.794251819456541  1.0000
  H   H451      1.0  0.5375730257046883  0.5859140756953513  0.7840798751121598  1.0000
  H   H452      1.0  0.5749957325830021  0.5655673217153248  0.7734899937371943  1.0000
  C   C711      1.0  0.5133783529477915  0.6148636780632721  0.7483216114287098  1.0000
  C   C712      1.0  0.516203491742142  0.6292398121391578  0.7748938335065937  1.0000
  C   C713      1.0  0.4894609162894496  0.6307313074396856  0.7850550615168572  1.0000
  C   C714      1.0  0.46093790145376873  0.6175182180007238  0.7700093284158133  1.0000
  C   C715      1.0  0.4585075841849079  0.6029904202261521  0.7438657597026314  1.0000
  C   C716      1.0  0.48466210199762044  0.6006278349695677  0.7331880043879018  1.0000
  C   C717      1.0  0.5512787717259764  0.6504427551122353  0.7889943859384696  1.0000
  C   C718      1.0  0.5653533066382733  0.6833506292273328  0.7693492022341718  1.0000
  C   C719      1.0  0.5539673404681853  0.7049284558973862  0.7744287446058918  1.0000
  C   C720      1.0  0.5632459456385402  0.731253786169762  0.7568539566531053  1.0000
  C   C721      1.0  0.5827310058348703  0.7360460137813316  0.7329715344387272  1.0000
  C   C722      1.0  0.5927776438876118  0.7137414008810802  0.7269232354627805  1.0000
  C   C723      1.0  0.5837336162548357  0.687931362574634  0.7446287626918011  1.0000
  C   C724      1.0  0.529344451376089  0.626374584992357  0.8401734544170781  1.0000
  C   C725      1.0  0.5188096529532182  0.6295258681009068  0.8669214243744898  1.0000
  C   C726      1.0  0.5252757428771179  0.6600875312474939  0.876686148022404  1.0000
  C   C727      1.0  0.5490401327607479  0.6866390960785579  0.8615525409815958  1.0000
  C   C728      1.0  0.5606929463487045  0.6827558706713752  0.8360648119164084  1.0000
  C   C729      1.0  0.5483485700317743  0.6529907903514204  0.8231923513744039  1.0000
  C   C730      1.0  0.5027473349321591  0.6634948241590791  0.9014280202330097  1.0000
  C   C731      1.0  0.40822957721514747  0.5962152114399868  0.8618954636733577  1.0000
  C   C732      1.0  0.4126751570684799  0.5940227300532857  0.8907609812523977  1.0000
  C   C733      1.0  0.4411323640734103  0.6164150823336387  0.9038799174791059  1.0000
  C   C734      1.0  0.46644625004756685  0.6414436238281571  0.8886712960994749  1.0000
  C   C735      1.0  0.4602480920836603  0.6445293052268122  0.8596278873740835  1.0000
  C   C736      1.0  0.43219396491550005  0.6215079694509552  0.8465239540151398  1.0000
  C   C737      1.0  0.5112375372305055  0.700794702029316  0.9060981986414393  1.0000
  C   C738      1.0  0.5405341722823148  0.7230192731897253  0.919152836863442  1.0000
  C   C739      1.0  0.5490427431805771  0.7548582917583732  0.9226763675212933  1.0000
  C   C740      1.0  0.5281470074097073  0.7657922330815264  0.9141483088305449  1.0000
  C   C741      1.0  0.4997670991274609  0.7448598925888509  0.9011472522791298  1.0000
  C   C742      1.0  0.4904128988205989  0.7128857308607368  0.8986739223647988  1.0000
  C   C743      1.0  0.49307931836907787  0.6564525188298994  0.9559462984226477  1.0000
  C   C744      1.0  0.49845094693796416  0.6491318648066998  0.9828764460600579  1.0000
  C   C745      1.0  0.5207848956563161  0.6390396603119188  0.9872058450435491  1.0000
  C   C746      1.0  0.5355899134011611  0.6335363885806222  0.9640071249458709  1.0000
  C   C747      1.0  0.5297489734160215  0.640764389604662  0.9369612408999913  1.0000
  C   C748      1.0  0.507949145247407  0.6523192259610087  0.932036013739564  1.0000
  H   H453      1.0  0.5353011545763747  0.6168805841533375  0.7393734724405533  1.0000
  H   H454      1.0  0.49018439898917315  0.6432409375483306  0.805023878511505  1.0000
  H   H455      1.0  0.4408418856002015  0.6205988687022569  0.7788738799978527  1.0000
  H   H456      1.0  0.48556505980320314  0.5922121820111836  0.7114166999946816  1.0000
  H   H457      1.0  0.5373142781225686  0.7018123523369818  0.7922178592410294  1.0000
  H   H458      1.0  0.5533280552596939  0.7467386527900141  0.7613569602493011  1.0000
  H   H459      1.0  0.607770147427868  0.7170564250739468  0.7082853871655327  1.0000
  H   H460      1.0  0.5905694130222041  0.6703510743954526  0.7387476385280882  1.0000
  H   H461      1.0  0.5182431476827688  0.6022156691618551  0.8314139229093904  1.0000
  H   H462      1.0  0.502781909035042  0.6074490738295747  0.8785400738247405  1.0000
  H   H463      1.0  0.5582161517993894  0.7104192337036676  0.8695683589015254  1.0000
  H   H464      1.0  0.578177879884856  0.7043436956153799  0.8249648330374473  1.0000
  H   H465      1.0  0.3945509259729325  0.5747369165234711  0.9040620951591042  1.0000
  H   H466      1.0  0.4426151494460086  0.6126402603451796  0.9261441732417334  1.0000
  H   H467      1.0  0.47826430941179227  0.6645599235882715  0.8468454440386665  1.0000
  H   H468      1.0  0.4295534447026728  0.6245204517478773  0.8243454289254527  1.0000
  H   H469      1.0  0.5573209182051061  0.7153841468917183  0.9271150731127837  1.0000
  H   H470      1.0  0.5714854862396536  0.7711123481983695  0.933152655754613  1.0000
  H   H471      1.0  0.48381575005192623  0.7539623368983014  0.8933093255055518  1.0000
  H   H472      1.0  0.4668195669443964  0.6975226139020888  0.8896229065691137  1.0000
  H   H473      1.0  0.47606760914612695  0.6655458304118198  0.9552668828395948  1.0000
  H   H474      1.0  0.4861826866675768  0.6535152245587  0.0005605406208435415  1.0000
  H   H475      1.0  0.5533721020554131  0.6251547000463525  0.9670162715660797  1.0000
  H   H476      1.0  0.5447707832884301  0.6382088487042584  0.9197379487062605  1.0000
  C   C749      1.0  0.5633477192797468  0.77950522129849  0.5401332452601887  1.0000
  C   C750      1.0  0.5963440794916592  0.795266242288309  0.5389844542427871  1.0000
  C   C751      1.0  0.6135989219835456  0.8284023183801226  0.5402275490004231  1.0000
  C   C752      1.0  0.5977790669172276  0.8466365983328186  0.5393509528696073  1.0000
  C   C753      1.0  0.5642298236224049  0.8302955711369766  0.5437425065909804  1.0000
  C   C754      1.0  0.5469228543062039  0.7969448030974603  0.543740363324157  1.0000
  H   H477      1.0  0.6083717638264656  0.7811214748580092  0.5358595712141087  1.0000
  H   H478      1.0  0.6394757220365301  0.8397254053375288  0.540399010346304  1.0000
  H   H479      1.0  0.5507101854193921  0.8425285099481938  0.5467237907424837  1.0000
  H   H480      1.0  0.5202425908184543  0.783786719104445  0.5462415557071938  1.0000
  C   C755      1.0  0.5760194347808997  0.8917320568397665  0.5058945577546076  1.0000
  C   C756      1.0  0.5964916365322522  0.901724379488174  0.5293590429384011  1.0000
  C   C757      1.0  0.6019980422371701  0.9301495456698751  0.5432366956206319  1.0000
  C   C758      1.0  0.5887790374929398  0.9483037986542149  0.5331011868122506  1.0000
  C   C759      1.0  0.5687959717307904  0.938573213539656  0.510232529805393  1.0000
  C   C760      1.0  0.5615163819765547  0.9089115523456035  0.4970364359730385  1.0000
  C   C761      1.0  0.6178946837451988  0.8850445017639013  0.5364468263237505  1.0000
  C   C762      1.0  0.6416520129990163  0.8961755978604702  0.5086872344256419  1.0000
  C   C763      1.0  0.6651017443433328  0.9283174122830418  0.504985812621439  1.0000
  C   C764      1.0  0.6808164719996255  0.9396085367760132  0.47946593455389896  1.0000
  C   C765      1.0  0.6720873248788729  0.9192335069480867  0.4559821599686938  1.0000
  C   C766      1.0  0.6488859862149315  0.8869331088280104  0.45945425222278097  1.0000
  C   C767      1.0  0.6346142307837519  0.875918253692827  0.485557098866316  1.0000
  C   C768      1.0  0.6187369651526803  0.8933451505837591  0.5920345946583203  1.0000
  C   C769      1.0  0.6332655076129624  0.8989327146508478  0.6181052922995026  1.0000
  C   C770      1.0  0.6657088763617098  0.9083400934609506  0.6207693729611262  1.0000
  C   C771      1.0  0.6835171586588142  0.9145471953657397  0.5957767385321697  1.0000
  C   C772      1.0  0.6688156091956005  0.9070500163726114  0.5694938574754598  1.0000
  C   C773      1.0  0.635961386536865  0.8961849604032626  0.566681891403014  1.0000
  C   C774      1.0  0.6815709298205826  0.9115749569230921  0.6517117160921481  1.0000
  C   C775      1.0  0.6746978641405886  0.9922665274916337  0.6907041694122756  1.0000
  C   C776      1.0  0.6505552814075775  0.9609326739966118  0.6957022676447022  1.0000
  C   C777      1.0  0.6516203692933311  0.9358467440472223  0.6825318930142299  1.0000
  C   C778      1.0  0.6780561737780015  0.9409103776908339  0.6654286237626157  1.0000
  C   C779      1.0  0.701617284701243  0.9730675434176687  0.6604262389965421  1.0000
  C   C780      1.0  0.7003795292102194  0.9986918227160961  0.6733351350745461  1.0000
  C   C781      1.0  0.7169896126585731  0.9146917075937648  0.651173756119447  1.0000
  C   C782      1.0  0.7240636869976731  0.8942221646697507  0.6347284697826505  1.0000
  C   C783      1.0  0.7550364730339233  0.8998984378827588  0.6325401943558462  1.0000
  C   C784      1.0  0.7794794282404213  0.9246293628335466  0.647127268356659  1.0000
  C   C785      1.0  0.7727153948997237  0.942340042764652  0.6667124405898984  1.0000
  C   C786      1.0  0.7412065336251887  0.9362201054917253  0.6691514782350535  1.0000
  C   C787      1.0  0.6700980427002959  0.8799129468730612  0.7000059474263114  1.0000
  C   C788      1.0  0.6569057336238587  0.851772810969171  0.7150731131955906  1.0000
  C   C789      1.0  0.6388031836806034  0.8221948773600308  0.7014697986667692  1.0000
  C   C790      1.0  0.633263472628202  0.8213983140948548  0.6728186077700801  1.0000
  C   C791      1.0  0.6464010231295866  0.849654395533158  0.6575499749193909  1.0000
  C   C792      1.0  0.6645021690227364  0.8797839942427567  0.6704910199997476  1.0000
  H   H481      1.0  0.5702551900074  0.8690995536067101  0.4959669458281067  1.0000
  H   H482      1.0  0.6169899234081202  0.940346018731273  0.5620974436675248  1.0000
  H   H483      1.0  0.5945968502828792  0.9710640549364958  0.5427201683161659  1.0000
  H   H484      1.0  0.5435348925795043  0.9001986627196927  0.48038968255483205  1.0000
  H   H485      1.0  0.669662471055885  0.9465068392382487  0.5215661247681168  1.0000
  H   H486      1.0  0.6987861417469399  0.9645517768056134  0.477333384064506  1.0000
  H   H487      1.0  0.6417118082212843  0.8708409977004228  0.4417572980610543  1.0000
  H   H488      1.0  0.61566233499027  0.8519447490602166  0.4855849613350216  1.0000
  H   H489      1.0  0.5932005121837195  0.884075464943533  0.5914580558827959  1.0000
  H   H490      1.0  0.6179410014655735  0.894524524969746  0.6366616964574571  1.0000
  H   H491      1.0  0.7099322547230895  0.9254999189159162  0.5955645551166422  1.0000
  H   H492      1.0  0.6838950582175504  0.9084604074091551  0.5514582671556185  1.0000
  H   H493      1.0  0.6302310946497879  0.9575503546443622  0.709142693894937  1.0000
  H   H494      1.0  0.6310719572704909  0.9120582234971608  0.6873370972325406  1.0000
  H   H495      1.0  0.7217253813665884  0.9772174729395118  0.6462571020263137  1.0000
  H   H496      1.0  0.7179645353870028  0.02287436182194047  0.6671625266228357  1.0000
  H   H497      1.0  0.7058530712178501  0.8750048684960289  0.6218517227069991  1.0000
  H   H498      1.0  0.761985398917177  0.8862839631965539  0.6188361462863198  1.0000
  H   H499      1.0  0.7925458796980804  0.9622754245392205  0.6777824137333305  1.0000
  H   H500      1.0  0.7350477323107314  0.9496014530735529  0.6844136812852721  1.0000
  H   H501      1.0  0.6855766176985727  0.9023816899914141  0.7103772155852789  1.0000
  H   H502      1.0  0.6603327326279211  0.8526015376633209  0.7377145839191561  1.0000
  H   H503      1.0  0.6212866550075178  0.798468082962619  0.6616607606868842  1.0000
  H   H504      1.0  0.6431563300447141  0.846819877087388  0.6342312318795961  1.0000
  C   C793      1.0  0.3620834738838349  0.9753139618148151  0.18855925696539977  1.0000
  C   C794      1.0  0.3709287435286584  0.9551751476689003  0.20246584374974796  1.0000
  C   C795      1.0  0.3630679105085735  0.9246697809906602  0.192065641488663  1.0000
  C   C796      1.0  0.3414391356500777  0.9120896319329637  0.1697448034818947  1.0000
  C   C797      1.0  0.3351250735084421  0.9332066977253843  0.1541259608322439  1.0000
  C   C798      1.0  0.3448073431386459  0.9636414482272652  0.1636926466256656  1.0000
  H   H505      1.0  0.38383846087025475  0.9639007858039336  0.22240465500886664  1.0000
  H   H506      1.0  0.3713147419981416  0.9104550885479459  0.20304816934569578  1.0000
  H   H507      1.0  0.3183177074926975  0.9238442138575926  0.13634263301752977  1.0000
  H   H508      1.0  0.33576773087202016  0.977772613972185  0.15318142314312277  1.0000
  C   C799      1.0  0.267199522237569  0.8710316399574011  0.17097546729195445  1.0000
  C   C800      1.0  0.28517461663583576  0.8583319306508012  0.15777487259927062  1.0000
  C   C801      1.0  0.2682807612047969  0.8285070561423139  0.14442210596211752  1.0000
  C   C802      1.0  0.2349594814289526  0.8121816144417173  0.14526312386366305  1.0000
  C   C803      1.0  0.21770765776584133  0.8237972443460848  0.15973124655577103  1.0000
  C   C804      1.0  0.23429140821720187  0.8537850008439815  0.17236023198662465  1.0000
  C   C805      1.0  0.32350256550237044  0.8748068010534514  0.1635398317011493  1.0000
  C   C806      1.0  0.32213214341685126  0.8519843626098893  0.1890925017510892  1.0000
  C   C807      1.0  0.3251872555293733  0.8248852263285986  0.1845009812350825  1.0000
  C   C808      1.0  0.32314312470356865  0.804681050844997  0.20622320481804432  1.0000
  C   C809      1.0  0.31653183188734235  0.8108779870111948  0.2337703989739431  1.0000
  C   C810      1.0  0.31139480387558244  0.8366624714961607  0.23890352301625087  1.0000
  C   C811      1.0  0.3141689779412353  0.8569456522306135  0.21681715839997462  1.0000
  C   C812      1.0  0.33461377981585916  0.877555561978142  0.10914221943367497  1.0000
  C   C813      1.0  0.3502860423123857  0.8740713151107034  0.08619361857430044  1.0000
  C   C814      1.0  0.3775501395416233  0.8703085528624068  0.08906216689088695  1.0000
  C   C815      1.0  0.3887982431766578  0.8705743939600877  0.11653413238128053  1.0000
  C   C816      1.0  0.37262089104504037  0.8736530665127925  0.13948809140771387  1.0000
  C   C817      1.0  0.3439566678238113  0.8748813036536875  0.13617224330506067  1.0000
  C   C818      1.0  0.3910209163330431  0.8613688909987566  0.06149575968007204  1.0000
  C   C819      1.0  0.3033665692187525  0.7670188757803991  0.04978066322276331  1.0000
  C   C820      1.0  0.31047249712875824  0.7911608209074467  0.030658436623402174  1.0000
  C   C821      1.0  0.33865361332448446  0.8203390372102074  0.03296459172549948  1.0000
  C   C822      1.0  0.36092524427291917  0.8262818007305132  0.05458158090742682  1.0000
  C   C823      1.0  0.3540357526186866  0.8012195198943194  0.07353226981441183  1.0000
  C   C824      1.0  0.3253468742532598  0.7725455519512157  0.0717077067675573  1.0000
  C   C825      1.0  0.4250480785556957  0.8614135553117741  0.06644670604238145  1.0000
  C   C826      1.0  0.4522687588638937  0.8904881944998998  0.07500876632912826  1.0000
  C   C827      1.0  0.4826348912171606  0.8938418946015281  0.07490674682832915  1.0000
  C   C828      1.0  0.48716467339734854  0.8688602493415682  0.0673275887068443  1.0000
  C   C829      1.0  0.4607253106085858  0.8400853524808044  0.0580986817648077  1.0000
  C   C830      1.0  0.4301455787420296  0.8363952831350673  0.05703990795399361  1.0000
  C   C831      1.0  0.4075092470500081  0.8790637872870242  0.009416519135589052  1.0000
  C   C832      1.0  0.41811071946849393  0.9007875234203089  0.9874394611273118  1.0000
  C   C833      1.0  0.4222176908783093  0.9318520152762936  0.9918095821804498  1.0000
  C   C834      1.0  0.4129785600348379  0.9388364048977414  0.017985299895984186  1.0000
  C   C835      1.0  0.4043287300996918  0.9175883223403637  0.039844478228968416  1.0000
  C   C836      1.0  0.4006474171619026  0.8872158491403985  0.03619878136217691  1.0000
  H   H509      1.0  0.279242952710566  0.8938116445064861  0.18302041251340143  1.0000
  H   H510      1.0  0.2814009296067113  0.8172022380024531  0.13535801623880903  1.0000
  H   H511      1.0  0.22251720360579244  0.7887901655774993  0.13495443909594199  1.0000
  H   H512      1.0  0.22259045654531892  0.8649825371263009  0.18438953136025996  1.0000
  H   H513      1.0  0.33005413524531685  0.8192592801625385  0.16323098695188143  1.0000
  H   H514      1.0  0.32839125625583104  0.7849609847997142  0.20185887058532978  1.0000
  H   H515      1.0  0.3069806629389893  0.841251769781782  0.26030189898218026  1.0000
  H   H516      1.0  0.31000881375765893  0.8765193030766452  0.22250967508321867  1.0000
  H   H517      1.0  0.31324126199827484  0.879623534180596  0.10408818193715474  1.0000
  H   H518      1.0  0.33980588543881834  0.8735632598754172  0.0661187862183843  1.0000
  H   H519      1.0  0.4093839593563024  0.867314850776918  0.11955592427574807  1.0000
  H   H520      1.0  0.3821558117365558  0.8744518398192269  0.16032193089233054  1.0000
  H   H521      1.0  0.2944998872633749  0.7870538345556083  0.012815740317676738  1.0000
  H   H522      1.0  0.34278209769761475  0.8382158713719677  0.01723086997410861  1.0000
  H   H523      1.0  0.3681788689343528  0.8042015260228177  0.09199115533189647  1.0000
  H   H524      1.0  0.3210433968219125  0.7541762548695549  0.08762039129871141  1.0000
  H   H525      1.0  0.4493014094022539  0.9117861502424718  0.08068070765086659  1.0000
  H   H526      1.0  0.5023220476487974  0.9169339779464774  0.08113850944436844  1.0000
  H   H527      1.0  0.4657223609230413  0.8214422689460289  0.05020288678699503  1.0000
  H   H528      1.0  0.4106393029276163  0.814942545287072  0.04847755699406897  1.0000
  H   H529      1.0  0.4062532260270201  0.8557799661034028  0.005550065785975944  1.0000
  H   H530      1.0  0.4263424697534661  0.8941326872825599  0.9679978877712476  1.0000
  H   H531      1.0  0.416709950782012  0.9626637184473024  0.022456154489827185  1.0000
  H   H532      1.0  0.4001743067755606  0.9263187406861327  0.06053343287631585  1.0000
  C   C837      1.0  0.4517885136478279  0.8811901525909742  0.408605246834993  1.0000
  C   C838      1.0  0.4837720990950344  0.9053778888485143  0.4064148281413652  1.0000
  C   C839      1.0  0.5083871082486712  0.8983718923130006  0.4020125580858746  1.0000
  C   C840      1.0  0.5012385258208913  0.8657559216052836  0.3985618985000226  1.0000
  C   C841      1.0  0.4692309237899109  0.8420916001406126  0.40347426605950876  1.0000
  C   C842      1.0  0.4450282030429451  0.8495934155530622  0.4087681351135798  1.0000
  H   H533      1.0  0.4891469663768091  0.9305207081294483  0.40519316605196426  1.0000
  H   H534      1.0  0.5331001990737751  0.9173468146150823  0.3980025058590863  1.0000
  H   H535      1.0  0.46112893143465955  0.8161341884487843  0.39973426545248286  1.0000
  H   H536      1.0  0.4203713917060319  0.8292767716076634  0.4116572587916721  1.0000
  C   C843      1.0  0.5152925522015571  0.8172694312065564  0.4279589462512933  1.0000
  C   C844      1.0  0.5214271459517629  0.8221418821539175  0.3986776349084922  1.0000
  C   C845      1.0  0.5266640537692487  0.7998935243494524  0.3834582971947437  1.0000
  C   C846      1.0  0.5253798811556663  0.7735647034580874  0.39759528516261927  1.0000
  C   C847      1.0  0.5207518976170243  0.7700348944138574  0.4267415706955393  1.0000
  C   C848      1.0  0.5166064368601275  0.7926686008607666  0.441701573123643  1.0000
  C   C849      1.0  0.5273885312231095  0.8557290444661246  0.38654245815377536  1.0000
  C   C850      1.0  0.5649765217495645  0.8779946507206939  0.39409318717300307  1.0000
  C   C851      1.0  0.5901622833475028  0.8807057544094604  0.37649268001833436  1.0000
  C   C852      1.0  0.6219255574247152  0.9033731724480163  0.38206303049263834  1.0000
  C   C853      1.0  0.6292830832365812  0.9217170018126346  0.40606118911548605  1.0000
  C   C854      1.0  0.6046778815244355  0.9174000240804111  0.425048389904966  1.0000
  C   C855      1.0  0.5733183338293962  0.895212754190175  0.41924442334689943  1.0000
  C   C856      1.0  0.4971607713840327  0.8351080622267449  0.3380574760723196  1.0000
  C   C857      1.0  0.48639265170830914  0.8433745147015407  0.3137828360292391  1.0000
  C   C858      1.0  0.4976884941171158  0.8758577526960022  0.30665647384106653  1.0000
  C   C859      1.0  0.5267924692574057  0.8975683351123596  0.3184465846371981  1.0000
  C   C860      1.0  0.5393055111872287  0.8900015196444712  0.34122736770429174  1.0000
  C   C861      1.0  0.5226638784174675  0.8591375428584282  0.35356186827359504  1.0000
  C   C862      1.0  0.4786806310073716  0.8886915122143817  0.2874678059701765  1.0000
  C   C863      1.0  0.5278848383427581  0.9052103714607298  0.20422225091161486  1.0000
  C   C864      1.0  0.5034457175681313  0.8745109295410061  0.21171168249969016  1.0000
  C   C865      1.0  0.4892104810256269  0.8685541984939922  0.23832269770707953  1.0000
  C   C866      1.0  0.49883588607112556  0.8933601884135851  0.2582615089661982  1.0000
  C   C867      1.0  0.526620064592993  0.9225547964443468  0.25185099789707815  1.0000
  C   C868      1.0  0.539578581916574  0.9293402519643801  0.22463793903896465  1.0000
  C   C869      1.0  0.47963516615277835  0.9206884303371963  0.3002995444425342  1.0000
  C   C870      1.0  0.47869335109544836  0.9244874918340733  0.3291543456874568  1.0000
  C   C871      1.0  0.48592268035281105  0.9536536230523962  0.34155100099464186  1.0000
  C   C872      1.0  0.4939059189339546  0.9799204565042148  0.3239097717703265  1.0000
  C   C873      1.0  0.490311142679401  0.9755113169727974  0.29490279858093466  1.0000
  C   C874      1.0  0.48297794735645766  0.9462388743536263  0.28268189115327746  1.0000
  C   C875      1.0  0.42230391050832355  0.865988531488593  0.2628052346320406  1.0000
  C   C876      1.0  0.3896423318941909  0.8467855402482287  0.2622394121906338  1.0000
  C   C877      1.0  0.37326435008937564  0.8263252331614738  0.2843793584774978  1.0000
  C   C878      1.0  0.3901789635675636  0.8272390246413104  0.30858970051587303  1.0000
  C   C879      1.0  0.422657742773479  0.8474245299252007  0.30957774652151143  1.0000
  C   C880      1.0  0.4405399019263665  0.8659669180487604  0.2861261209386589  1.0000
  H   H537      1.0  0.5133098430303523  0.834981145035633  0.4416758539217609  1.0000
  H   H538      1.0  0.5353111231201124  0.8044479388996332  0.3619634742217564  1.0000
  H   H539      1.0  0.5292380565427932  0.7563457751397138  0.3845770824766162  1.0000
  H   H540      1.0  0.5138601424622083  0.7919258145119268  0.4650696113003786  1.0000
  H   H541      1.0  0.584097611039753  0.866338492770226  0.35662459656439155  1.0000
  H   H542      1.0  0.6411326268736909  0.9063025193640354  0.36822824314687774  1.0000
  H   H543      1.0  0.6103100752314469  0.9316384475148063  0.4441041752327983  1.0000
  H   H544      1.0  0.5542186473678856  0.8906755614084335  0.43461164647147005  1.0000
  H   H545      1.0  0.4847574244901252  0.8109923610275267  0.3461826006002482  1.0000
  H   H546      1.0  0.4645145046830914  0.8251179486584334  0.3044510522796742  1.0000
  H   H547      1.0  0.5382377793453683  0.9231649123309514  0.31322130012147936  1.0000
  H   H548      1.0  0.559131633734103  0.9100978230078591  0.35172294533902293  1.0000
  H   H549      1.0  0.49441659710289404  0.8557540366081162  0.19617642725615625  1.0000
  H   H550      1.0  0.46920973430741864  0.8444874939686882  0.24348368421809297  1.0000
  H   H551      1.0  0.5372148957852682  0.9427732403072335  0.26722036428847235  1.0000
  H   H552      1.0  0.55913438172787  0.9531984990473978  0.21960769180418538  1.0000
  H   H553      1.0  0.47327468016431445  0.9043545763583734  0.3426183478727501  1.0000
  H   H554      1.0  0.48811191543547766  0.956560746868803  0.3647882998951433  1.0000
  H   H555      1.0  0.4976054235148674  0.9962100195363006  0.2806329280700014  1.0000
  H   H556      1.0  0.48339381085270783  0.9432666260747993  0.25958819112995124  1.0000
  H   H557      1.0  0.435998616375033  0.8811446320393933  0.24455531762984822  1.0000
  H   H558      1.0  0.3775762271480104  0.8496073322377506  0.2435351226218572  1.0000
  H   H559      1.0  0.37794754266281183  0.8142779151916688  0.32821559481875917  1.0000
  H   H560      1.0  0.4343810824947523  0.8484232746582526  0.329898059275215  1.0000
  C   C881      1.0  0.2580911438077814  0.6796848215909728  0.37702849672421207  1.0000
  C   C882      1.0  0.233107373723789  0.6830421048421924  0.38969091711751236  1.0000
  C   C883      1.0  0.23399656672442  0.7127779955801995  0.3893780001612799  1.0000
  C   C884      1.0  0.2602992630499614  0.7403838135075402  0.37740785495197343  1.0000
  C   C885      1.0  0.28409721607088684  0.7352586425569303  0.36403386997326753  1.0000
  C   C886      1.0  0.2838900819270106  0.7061656793544382  0.36490617957043636  1.0000
  H   H561      1.0  0.2133019859123722  0.6623889421196438  0.3991191478741353  1.0000
  H   H562      1.0  0.21322353322429274  0.713469971625871  0.3986111936369633  1.0000
  H   H563      1.0  0.30445587173682753  0.7546582284327775  0.3521623150378426  1.0000
  H   H564      1.0  0.30475766725814435  0.705035947997012  0.35548437861428395  1.0000
  C   C887      1.0  0.32263399446160324  0.8008329314685275  0.39569635075698895  1.0000
  C   C888      1.0  0.3017044940291698  0.8035182363791762  0.37606402665363226  1.0000
  C   C889      1.0  0.31401959661847795  0.8312607321913902  0.3596594623864825  1.0000
  C   C890      1.0  0.3461728795405254  0.8542847337215005  0.36121761736717467  1.0000
  C   C891      1.0  0.36708608143534527  0.8516063991029827  0.38074920792982636  1.0000
  C   C892      1.0  0.3550730373732485  0.8240734424329201  0.39736809887932717  1.0000
  C   C893      1.0  0.2632944873658771  0.7754641709343493  0.37597615271386836  1.0000
  C   C894      1.0  0.2517105480389095  0.788288839595768  0.40347212279268524  1.0000
  C   C895      1.0  0.2470817609211547  0.8150504186790861  0.40032580709577176  1.0000
  C   C896      1.0  0.24653242321774654  0.8326639984547805  0.42302514602357205  1.0000
  C   C897      1.0  0.2543941434992277  0.8269943559694956  0.4497966919160424  1.0000
  C   C898      1.0  0.2572239759569957  0.7998108602688561  0.4539331968854178  1.0000
  C   C899      1.0  0.25499500499473454  0.7797040813998851  0.4307987747924448  1.0000
  C   C900      1.0  0.2522327901636336  0.767952453189939  0.3210377942268223  1.0000
  C   C901      1.0  0.2300873315656758  0.7526508547007688  0.2990714525526627  1.0000
  C   C902      1.0  0.1967933555069119  0.7406586728692622  0.30393881150885516  1.0000
  C   C903      1.0  0.18719357611569484  0.7478906880187295  0.3300823802220369  1.0000
  C   C904      1.0  0.2088359909013167  0.7603451639230204  0.3518258221465515  1.0000
  C   C905      1.0  0.24192816059271086  0.7701803675200092  0.34841159809669914  1.0000
  C   C906      1.0  0.1696876550643996  0.7163640376039686  0.2813252032539953  1.0000
  C   C907      1.0  0.1691481724178386  0.7818412744844082  0.21694789767620876  1.0000
  C   C908      1.0  0.19118807164139123  0.7713333502502111  0.21572194905316072  1.0000
  C   C909      1.0  0.19332082350094215  0.7532668270501895  0.23679883499556353  1.0000
  C   C910      1.0  0.17043799892679623  0.7420083769880101  0.25957104499536315  1.0000
  C   C911      1.0  0.14958913988147404  0.7547758591392719  0.2618514808955784  1.0000
  C   C912      1.0  0.1496130777404376  0.7748923976584571  0.24083889295788094  1.0000
  C   C913      1.0  0.13439927006766128  0.6902699125212841  0.2936296980877694  1.0000
  C   C914      1.0  0.13232394933490915  0.6768444540774251  0.3208534732800004  1.0000
  C   C915      1.0  0.10294512526642488  0.6543016973756954  0.3318077100149629  1.0000
  C   C916      1.0  0.07504646803605126  0.6431508976192485  0.3160932776649835  1.0000
  C   C917      1.0  0.07704964306008459  0.6550037142898232  0.28923600109957276  1.0000
  C   C918      1.0  0.10665448660128245  0.677457983351803  0.27794527147331916  1.0000
  C   C919      1.0  0.1677121352239481  0.6768632387483366  0.24084746602517496  1.0000
  C   C920      1.0  0.17295760507786256  0.652210825232065  0.2311620432497308  1.0000
  C   C921      1.0  0.18873925311162568  0.6405020491034756  0.2481860116288751  1.0000
  C   C922      1.0  0.20010413780723624  0.6540375073163573  0.27464678383193636  1.0000
  C   C923      1.0  0.19466544651105458  0.6783308510612418  0.28445222954949717  1.0000
  C   C924      1.0  0.17871263258989448  0.690530853977747  0.26762972825176284  1.0000
  H   H565      1.0  0.313708216431978  0.7806076655250052  0.4106906454542688  1.0000
  H   H566      1.0  0.29929369653825894  0.8342195188058538  0.3443693968675582  1.0000
  H   H567      1.0  0.3536775727293636  0.8761858593909607  0.34856805657481543  1.0000
  H   H568      1.0  0.3693098750486906  0.8210672981051897  0.41304609569330686  1.0000
  H   H569      1.0  0.24582033847087092  0.8239836559755297  0.37957255444371907  1.0000
  H   H570      1.0  0.2427373622474856  0.8528868741079904  0.4196645036443075  1.0000
  H   H571      1.0  0.2647410301415161  0.7948112697735323  0.4736469651280678  1.0000
  H   H572      1.0  0.26077652483157765  0.7599296567359621  0.43466094160841084  1.0000
  H   H573      1.0  0.27724343267269996  0.774088383300119  0.3167276846447426  1.0000
  H   H574      1.0  0.2379454202466367  0.748018239863019  0.27857539191943126  1.0000
  H   H575      1.0  0.16148427415340488  0.7406951707965047  0.33417601985494205  1.0000
  H   H576      1.0  0.19885979885946656  0.7593535021876118  0.3732777797830686  1.0000
  H   H577      1.0  0.20789717320159942  0.7782299361633689  0.19839277947834852  1.0000
  H   H578      1.0  0.21257507968286823  0.7463821444294855  0.23545714996404596  1.0000
  H   H579      1.0  0.13057442798821808  0.7481606994206332  0.27830962683331595  1.0000
  H   H580      1.0  0.13243276089694492  0.7840885039191708  0.24273568409668778  1.0000
  H   H581      1.0  0.15437734331584346  0.6840041072541199  0.3324356871942515  1.0000
  H   H582      1.0  0.1005441475101835  0.6451608324845379  0.3537311863526523  1.0000
  H   H583      1.0  0.05565823061585169  0.6467716888287808  0.2764578442978028  1.0000
  H   H584      1.0  0.10574888464513288  0.6848112993328606  0.25601107880151214  1.0000
  H   H585      1.0  0.15529099808190788  0.6854329696772563  0.22732130910199985  1.0000
  H   H586      1.0  0.1637416227475505  0.6417359891904953  0.21027569372793808  1.0000
  H   H587      1.0  0.2137173914878422  0.6474431674832704  0.28844942217534436  1.0000
  H   H588      1.0  0.2021836786181981  0.6874156397841211  0.3058463189817795  1.0000
  C   C925      1.0  0.1815339354779744  0.40549341330340327  0.17646973179402375  1.0000
  C   C926      1.0  0.16714336754903564  0.419354993881189  0.19307490583585413  1.0000
  C   C927      1.0  0.18041167895166763  0.45244657631642415  0.19484481557870914  1.0000
  C   C928      1.0  0.20816924927182728  0.47289213533886826  0.17884682902797933  1.0000
  C   C929      1.0  0.22175086600066132  0.45792598689158837  0.16239661317748877  1.0000
  C   C930      1.0  0.20852580792408879  0.4251504908233608  0.16074051090296215  1.0000
  H   H589      1.0  0.14683869432842125  0.40389779171642937  0.20669408053916957  1.0000
  H   H590      1.0  0.16776154978007984  0.46016609689324856  0.20993084209603524  1.0000
  H   H591      1.0  0.24421418991626195  0.4724594274307214  0.15082747319086115  1.0000
  H   H592      1.0  0.21909551330242147  0.4142463902883499  0.14624795496906615  1.0000
  C   C931      1.0  0.27017286615077585  0.5055915830455096  0.21435025828611398  1.0000
  C   C932      1.0  0.2639946715182046  0.5209280375765948  0.19165306262513723  1.0000
  C   C933      1.0  0.29166363500636516  0.5479225977739255  0.17992917877385214  1.0000
  C   C934      1.0  0.3222325635611592  0.5589873978935773  0.19145223852377427  1.0000
  C   C935      1.0  0.3265968640005773  0.5443165803523746  0.21498037873222609  1.0000
  C   C936      1.0  0.2998348918544253  0.5171240325477978  0.22630111409400885  1.0000
  C   C937      1.0  0.22750634550654705  0.511512109496074  0.18238793447378346  1.0000
  C   C938      1.0  0.21002364154355688  0.5226249299853808  0.20613061569126867  1.0000
  C   C939      1.0  0.22627610997262612  0.5411049278692488  0.23018042704456293  1.0000
  C   C940      1.0  0.2146835669691803  0.55862277328479  0.24480822311502248  1.0000
  C   C941      1.0  0.18676597049234137  0.5583664732304847  0.23587508699463047  1.0000
  C   C942      1.0  0.16915519887868313  0.5381466405266163  0.2138645940239065  1.0000
  C   C943      1.0  0.18031463288459565  0.5205859581728883  0.19951735158064451  1.0000
  C   C944      1.0  0.2249875261464924  0.5178354849784067  0.12630807207653572  1.0000
  C   C945      1.0  0.2347726431583662  0.5372830949531147  0.10263976221782632  1.0000
  C   C946      1.0  0.24700346891265515  0.5706356779846238  0.10554517472377722  1.0000
  C   C947      1.0  0.2451824308959684  0.5824828008385347  0.13265428514095046  1.0000
  C   C948      1.0  0.23865940066987515  0.5636704694288748  0.15599146027542746  1.0000
  C   C949      1.0  0.22884122479403726  0.5305548237347824  0.1535181303610963  1.0000
  C   C950      1.0  0.26820404095095235  0.5963953001565943  0.08105385040483977  1.0000
  C   C951      1.0  0.36021409778459784  0.6054563134705641  0.10958394672600051  1.0000
  C   C952      1.0  0.3415179741156922  0.5822182417429008  0.09009607880654845  1.0000
  C   C953      1.0  0.3132626701935801  0.5799712051424029  0.08063977125453753  1.0000
  C   C954      1.0  0.302830264940889  0.6015178827041542  0.0905030851763331  1.0000
  C   C955      1.0  0.32339048745793814  0.6263381408844183  0.10879543886163098  1.0000
  C   C956      1.0  0.3518211349649077  0.6282216346407411  0.11849436421806328  1.0000
  C   C957      1.0  0.26546423082707277  0.6285853615532719  0.08034721533312834  1.0000
  C   C958      1.0  0.23653718942415486  0.6277451199099756  0.08734712477871381  1.0000
  C   C959      1.0  0.23351138285439973  0.6552732754546138  0.08546662246776565  1.0000
  C   C960      1.0  0.2587077517910597  0.6832466163441435  0.07452353072028546  1.0000
  C   C961      1.0  0.28682842866209896  0.6837992984571584  0.06587874033415098  1.0000
  C   C962      1.0  0.2905451770020059  0.6568672319810434  0.0694315574009891  1.0000
  C   C963      1.0  0.2830193377928451  0.5979342200401614  0.027533553594723648  1.0000
  C   C964      1.0  0.2759184799693048  0.5927451387709879  0.9991952796542671  1.0000
  C   C965      1.0  0.24400328009701064  0.57458913662775  0.9901785561277583  1.0000
  C   C966      1.0  0.21938768267784742  0.5607788257559357  0.010072358783583146  1.0000
  C   C967      1.0  0.22634392872059905  0.5654197757325867  0.03865067860827298  1.0000
  C   C968      1.0  0.2584135412861937  0.5843642184910848  0.048160353504189235  1.0000
  H   H593      1.0  0.24960416521411416  0.4845993177493709  0.22561955524413246  1.0000
  H   H594      1.0  0.2915150208734393  0.5629320559392564  0.16216021084685553  1.0000
  H   H595      1.0  0.3428735919540599  0.5799051407070382  0.18275186118041556  1.0000
  H   H596      1.0  0.30189714570775666  0.5054432352972055  0.24527759854937128  1.0000
  H   H597      1.0  0.24991295781601156  0.5453649740453117  0.2371931960910895  1.0000
  H   H598      1.0  0.22968586157783896  0.5746988443518292  0.26281166443251114  1.0000
  H   H599      1.0  0.14807639414742094  0.5388183667034142  0.20656612750980602  1.0000
  H   H600      1.0  0.16653058659222894  0.5072574514737418  0.18096780587652536  1.0000
  H   H601      1.0  0.21793862933335892  0.4926729554375756  0.12279161419920195  1.0000
  H   H602      1.0  0.23525023122484395  0.5273498122800865  0.08173926713499845  1.0000
  H   H603      1.0  0.2536784094213142  0.6079196882861496  0.13614395218299036  1.0000
  H   H604      1.0  0.24178070668680643  0.5758766505328956  0.176778790869974  1.0000
  H   H605      1.0  0.34839833147527066  0.5642965514882854  0.08222343111042948  1.0000
  H   H606      1.0  0.2975989642920946  0.5600765485509289  0.06650671751343973  1.0000
  H   H607      1.0  0.3153119546955421  0.6421635041977153  0.11732542649252063  1.0000
  H   H608      1.0  0.3660274309449203  0.6465025274127093  0.13481169752549618  1.0000
  H   H609      1.0  0.21635778642900297  0.6052164988225537  0.09428830871333509  1.0000
  H   H610      1.0  0.21096065763145866  0.6540919711232682  0.09135803431223145  1.0000
  H   H611      1.0  0.30654108864263807  0.7057004916986781  0.05634977603682323  1.0000
  H   H612      1.0  0.3139599179495666  0.6592162058644625  0.06281172550970737  1.0000
  H   H613      1.0  0.30822941159938877  0.6133470122546266  0.033836901322668256  1.0000
  H   H614      1.0  0.2952141273470154  0.6044639556068538  0.9830500506727622  1.0000
  H   H615      1.0  0.19410441297411507  0.54799615623188  0.003721859185521481  1.0000
  H   H616      1.0  0.20594093167927946  0.5556154344642226  0.05423437168201817  1.0000
  C   C969      1.0  0.7278239383915989  0.8854476558148363  0.17230686464271922  1.0000
  C   C970      1.0  0.711656373626685  0.8522966847103532  0.1732850516209694  1.0000
  C   C971      1.0  0.6795661435186503  0.8358865830746598  0.18120870906748793  1.0000
  C   C972      1.0  0.6619348691857682  0.8522714300545572  0.18692201543892004  1.0000
  C   C973      1.0  0.6793448518052301  0.8857854797456959  0.18555311091874382  1.0000
  C   C974      1.0  0.7113060611150748  0.9019146092700079  0.17787057098987025  1.0000
  H   H617      1.0  0.7247300739943483  0.8388534140044926  0.1692595678730519  1.0000
  H   H618      1.0  0.6681192059307091  0.8099183325051583  0.18175867133440074  1.0000
  H   H619      1.0  0.6693814962382012  0.9016166464178876  0.18896154814817268  1.0000
  H   H620      1.0  0.7243541658836579  0.9283733253099067  0.17650445271656465  1.0000
  C   C975      1.0  0.6096229826703097  0.878695063911244  0.21077828979805133  1.0000
  C   C976      1.0  0.6089649002594705  0.8564561601778183  0.19005247096133954  1.0000
  C   C977      1.0  0.6007029107916715  0.8600786539916481  0.16258157710435772  1.0000
  C   C978      1.0  0.5915917104042326  0.882713299690735  0.15614791875354375  1.0000
  C   C979      1.0  0.5911039107286569  0.903149827070282  0.17678157711684453  1.0000
  C   C980      1.0  0.60070623026701  0.9016039761437097  0.20428869218314372  1.0000
  C   C981      1.0  0.6232334871615668  0.8324315410650007  0.19701744515770178  1.0000
  C   C982      1.0  0.6193207344010592  0.8210793314511924  0.23016756744362188  1.0000
  C   C983      1.0  0.5922480129073819  0.8161706870365891  0.2463535184947736  1.0000
  C   C984      1.0  0.5888289637379321  0.8064569411458246  0.27456748295946654  1.0000
  C   C985      1.0  0.6119487882145701  0.8016099171373874  0.28716774861488503  1.0000
  C   C986      1.0  0.6402104929936715  0.8090792097546032  0.2720148521726654  1.0000
  C   C987      1.0  0.6441827133824267  0.8194571098330127  0.24415881326749878  1.0000
  C   C988      1.0  0.6119679276411737  0.795925197851991  0.15107866406257658  1.0000
  C   C989      1.0  0.5909186164204223  0.7758074651202945  0.1314227640241613  1.0000
  C   C990      1.0  0.5578416501680225  0.7607298482552438  0.13674599583371447  1.0000
  C   C991      1.0  0.5473236242105701  0.7633047520654022  0.16401992346961566  1.0000
  C   C992      1.0  0.5694769214332073  0.7822668378601159  0.18380634845758273  1.0000
  C   C993      1.0  0.6017951273274704  0.8006407268442677  0.1778808586706231  1.0000
  C   C994      1.0  0.5317995462511875  0.7426500828941133  0.11253629677538629  1.0000
  C   C995      1.0  0.5302908551173742  0.8317643614168454  0.09265128151353773  1.0000
  C   C996      1.0  0.5517880746611544  0.824891090959713  0.07790539144110277  1.0000
  C   C997      1.0  0.5505811058724759  0.795198066628612  0.08259571655767327  1.0000
  C   C998      1.0  0.5292187721507653  0.7727966217555019  0.10221518106008887  1.0000
  C   C999      1.0  0.5073291287393865  0.7801583662802983  0.1155096508396425  1.0000
  C   C1000     1.0  0.5073972763774676  0.8092113722438449  0.1111879676167158  1.0000
  C   C1001     1.0  0.4986342286761461  0.7118227130510172  0.1241523743054488  1.0000
  C   C1002     1.0  0.49823992430379754  0.6904493744708918  0.14479246246922015  1.0000
  C   C1003     1.0  0.47005442657766755  0.6628448385519355  0.15252301157494036  1.0000
  C   C1004     1.0  0.44179897910946414  0.6555654369018512  0.1383795938065942  1.0000
  C   C1005     1.0  0.44179286583901484  0.6750764793011339  0.11712695998466355  1.0000
  C   C1006     1.0  0.46962930410761794  0.7022017949149468  0.10992601211103278  1.0000
  C   C1007     1.0  0.5304603777876168  0.7208340078707871  0.060336252328552886  1.0000
  C   C1008     1.0  0.5366384523368495  0.7016339334655046  0.041331905404484726  1.0000
  C   C1009     1.0  0.5550566279772667  0.687683778304151  0.04915482931029813  1.0000
  C   C1010     1.0  0.5646239747502828  0.6910228591514247  0.0767137350872309  1.0000
  C   C1011     1.0  0.5584742247789531  0.7093951858764498  0.09585696570146247  1.0000
  C   C1012     1.0  0.5412179740751109  0.7246870545223282  0.08837760746745768  1.0000
  H   H621      1.0  0.6202526294217363  0.8799943890820549  0.2316892868883144  1.0000
  H   H622      1.0  0.601750989867775  0.8458248523784586  0.14481818167110228  1.0000
  H   H623      1.0  0.5845751157312461  0.8841919455903734  0.13509353711278782  1.0000
  H   H624      1.0  0.6020000604927672  0.918676850918138  0.2202999669881793  1.0000
  H   H625      1.0  0.5726434350816529  0.8187159724104927  0.23706245681485533  1.0000
  H   H626      1.0  0.567305824390219  0.8028942267300292  0.286244000613952  1.0000
  H   H627      1.0  0.6590106016248148  0.8063558038636234  0.28259187394669005  1.0000
  H   H628      1.0  0.666644997035836  0.8252361193628055  0.23445624435746648  1.0000
  H   H629      1.0  0.6362420527128025  0.8112587760494886  0.1429591120283892  1.0000
  H   H630      1.0  0.6002556538765517  0.7753676278844566  0.11042625058764015  1.0000
  H   H631      1.0  0.5220843163147566  0.7515988419063208  0.16956198282184926  1.0000
  H   H632      1.0  0.558961891561748  0.7845848908809535  0.2035209740069622  1.0000
  H   H633      1.0  0.5708539916987884  0.8433304919793903  0.06442774869463452  1.0000
  H   H634      1.0  0.5691740630304911  0.7899265642719622  0.07445044532160375  1.0000
  H   H635      1.0  0.4914273127662691  0.7644726063532633  0.13214461629031965  1.0000
  H   H636      1.0  0.4911520424517168  0.8142771419495025  0.12343223665274926  1.0000
  H   H637      1.0  0.5205336137426068  0.6949764599503031  0.15486710249981384  1.0000
  H   H638      1.0  0.47040068044860245  0.6461808769824076  0.16778714356530017  1.0000
  H   H639      1.0  0.4200126679621159  0.6687843909103492  0.10571149222928164  1.0000
  H   H640      1.0  0.46810608030403794  0.715452245780296  0.09195407681584974  1.0000
  H   H641      1.0  0.5140181015831772  0.7292065588717133  0.05286268091497148  1.0000
  H   H642      1.0  0.5282666022930463  0.6990447732985161  0.019582033679499622  1.0000
  H   H643      1.0  0.5774460148243533  0.6789628161686999  0.08472548080019571  1.0000
  H   H644      1.0  0.5651807960789588  0.709501158095454  0.11804106328489081  1.0000
  C   C1013     1.0  0.4227611917592123  0.5910244559183881  0.22871014600363468  1.0000
  C   C1014     1.0  0.4308719418561268  0.5720171693998167  0.24486394805243372  1.0000
  C   C1015     1.0  0.4527668384467906  0.5856616022763816  0.2665752409745956  1.0000
  C   C1016     1.0  0.46649215806402067  0.6182049075315003  0.2731872191251257  1.0000
  C   C1017     1.0  0.4599084791923418  0.6375851974942219  0.2551602018725785  1.0000
  C   C1018     1.0  0.43829876192620587  0.6240988041059126  0.2335046338878278  1.0000
  H   H645      1.0  0.4179082040716887  0.5461350271129253  0.24266709955833543  1.0000
  H   H646      1.0  0.4544083766470155  0.5686780284014031  0.28060077906764874  1.0000
  H   H647      1.0  0.4695360426968014  0.6633215919349561  0.26044764112617896  1.0000
  H   H648      1.0  0.43269369335582086  0.6396390715912662  0.22081649429264533  1.0000
  C   C1019     1.0  0.5337776657282973  0.6818254827105414  0.2820474841735184  1.0000
  C   C1020     1.0  0.5118164759833236  0.6676885655362336  0.3046696654956722  1.0000
  C   C1021     1.0  0.5204216764558127  0.6840184306075795  0.33080680440838345  1.0000
  C   C1022     1.0  0.5501673355364343  0.7115787503558253  0.3345382319481153  1.0000
  C   C1023     1.0  0.571431497847833  0.7249383727407962  0.31187961508996176  1.0000
  C   C1024     1.0  0.5626099012262383  0.7109205761053331  0.28495375398619865  1.0000
  C   C1025     1.0  0.48173577753347196  0.6307377240273389  0.3036516137545047  1.0000
  C   C1026     1.0  0.499223592637832  0.612977187838909  0.3169720170626228  1.0000
  C   C1027     1.0  0.4976118814795892  0.6076392011907601  0.3464998040901277  1.0000
  C   C1028     1.0  0.5111246689700364  0.5908923385214069  0.3577862471827343  1.0000
  C   C1029     1.0  0.5280241875772544  0.5805415649872859  0.34083729314241284  1.0000
  C   C1030     1.0  0.5310741376504002  0.5863589977830702  0.3116267096047875  1.0000
  C   C1031     1.0  0.5179445349495382  0.6037222301971914  0.3001752349667706  1.0000
  C   C1032     1.0  0.4432940276163812  0.6506770507965023  0.32527717600372624  1.0000
  C   C1033     1.0  0.41878502185967054  0.6476259743747772  0.34366640534944676  1.0000
  C   C1034     1.0  0.4000937653214924  0.6190467327139586  0.35811416700673143  1.0000
  C   C1035     1.0  0.40086708853185365  0.5916534609832269  0.3480150937343497  1.0000
  C   C1036     1.0  0.42554553538139284  0.5947227946142928  0.3300266552846256  1.0000
  C   C1037     1.0  0.44966010003180906  0.6253546353907152  0.3203412325091814  1.0000
  C   C1038     1.0  0.38337307527397396  0.6190485369719821  0.3881306188699967  1.0000
  C   C1039     1.0  0.4608795162955208  0.6965025754628215  0.4387160024384928  1.0000
  C   C1040     1.0  0.4285854917084175  0.6882273463321857  0.4431461349626892  1.0000
  C   C1041     1.0  0.4042770900673268  0.6630222088557728  0.4283618804141133  1.0000
  C   C1042     1.0  0.41144498477015623  0.6461665315968803  0.4080351378599392  1.0000
  C   C1043     1.0  0.44358624098110294  0.6532242385553219  0.40569040395501865  1.0000
  C   C1044     1.0  0.4680612261265686  0.6780426903813827  0.4203074836913607  1.0000
  C   C1045     1.0  0.3700028659860047  0.5875716244339482  0.4079236879851167  1.0000
  C   C1046     1.0  0.3879852055544203  0.5719251250141413  0.4115158031813203  1.0000
  C   C1047     1.0  0.37594350267204557  0.5434094323928071  0.42609216084801566  1.0000
  C   C1048     1.0  0.34626870317851366  0.5306466719132492  0.4400383980685988  1.0000
  C   C1049     1.0  0.3295631453322649  0.5475825772979034  0.439472575627192  1.0000
  C   C1050     1.0  0.3414515964509829  0.575689588236878  0.42391031522168193  1.0000
  C   C1051     1.0  0.32595378653989693  0.5989403237713621  0.36531340026690334  1.0000
  C   C1052     1.0  0.30028619061435  0.6032576455039173  0.35728257947920933  1.0000
  C   C1053     1.0  0.3024476402384985  0.6327906823321794  0.3604374682434168  1.0000
  C   C1054     1.0  0.32982883512799327  0.6580108751072842  0.37072729226309104  1.0000
  C   C1055     1.0  0.35614312223815886  0.6546333720503522  0.3779565312587921  1.0000
  C   C1056     1.0  0.3544965906360382  0.6245206445989382  0.37659555682586293  1.0000
  H   H649      1.0  0.5307939057239017  0.6696732394522245  0.2621965468541636  1.0000
  H   H650      1.0  0.5047456527393067  0.6738298394825177  0.34932462976351464  1.0000
  H   H651      1.0  0.5563943891538957  0.7219257117409186  0.355694418762988  1.0000
  H   H652      1.0  0.578823644055425  0.7205630883837302  0.26655595157318407  1.0000
  H   H653      1.0  0.4855703731679763  0.6166172039812874  0.36094542248058886  1.0000
  H   H654      1.0  0.509354230679169  0.5870947077392494  0.38052202164653426  1.0000
  H   H655      1.0  0.5441531371621128  0.5772111447265925  0.2980062489413779  1.0000
  H   H656      1.0  0.5215109935009761  0.6081622341312327  0.2770472426742682  1.0000
  H   H657      1.0  0.4559466047332695  0.6739346785226292  0.3138149850315918  1.0000
  H   H658      1.0  0.41742627327699056  0.6691456232628933  0.3480065206670557  1.0000
  H   H659      1.0  0.3848159357358519  0.5680746882386633  0.3562002297333364  1.0000
  H   H660      1.0  0.42672413274589077  0.5722169199273808  0.3264045343528928  1.0000
  H   H661      1.0  0.4229363808951584  0.7013141473838526  0.45896773065384405  1.0000
  H   H662      1.0  0.37854009100017744  0.6562409359580538  0.4321168838889038  1.0000
  H   H663      1.0  0.4506514283776195  0.639592134948367  0.392560751394193  1.0000
  H   H664      1.0  0.49236035953054424  0.6831442105876774  0.41683967797092053  1.0000
  H   H665      1.0  0.41169744872589215  0.5830775909756555  0.40064515385247484  1.0000
  H   H666      1.0  0.3907011523502135  0.5315348886125562  0.42664941022212843  1.0000
  H   H667      1.0  0.30789283555026853  0.5383620649447042  0.45148344290614517  1.0000
  H   H668      1.0  0.3262712031704121  0.5870754615725238  0.4231923208358059  1.0000
  H   H669      1.0  0.32338674244390403  0.5751102191120782  0.36382597309138703  1.0000
  H   H670      1.0  0.2779821547671969  0.5822593885216271  0.3503705439733878  1.0000
  H   H671      1.0  0.3313999342079081  0.680680980020323  0.37250620372660476  1.0000
  H   H672      1.0  0.37730484972361455  0.6759465357041802  0.3853808075354327  1.0000
  C   C1057     1.0  0.027777098666038218  0.2683267705748636  0.5509567427189169  1.0000
  C   C1058     1.0  0.05553644401239089  0.2667711336609528  0.5567478496760425  1.0000
  C   C1059     1.0  0.0595912245199952  0.24197108078968052  0.5451334867594388  1.0000
  C   C1060     1.0  0.03499245832104097  0.21686896703799186  0.5298219885722795  1.0000
  C   C1061     1.0  0.009009734874547756  0.2211109976747035  0.52140323648953  1.0000
  C   C1062     1.0  0.006200565566369056  0.24670416421783906  0.5315923269684991  1.0000
  H   H673      1.0  0.07453452836681015  0.28445438180046084  0.5706812272956846  1.0000
  H   H674      1.0  0.08182924283968385  0.2417801587858851  0.5493085705316374  1.0000
  H   H675      1.0  0.990583436439141  0.20414577259648253  0.5078899391672959  1.0000
  H   H676      1.0  0.9858931647589456  0.24915036417680042  0.5255568875934934  1.0000
  C   C1063     1.0  0.9819612582917884  0.14357640912435443  0.5311979658729732  1.0000
  C   C1064     1.0  0.0062335442074802705  0.15726359642886792  0.5104554295550381  1.0000
  C   C1065     1.0  0.001824779944198897  0.1407682957701149  0.4854670816597285  1.0000
  C   C1066     1.0  0.9753273550833997  0.11028648951245942  0.4814205938969406  1.0000
  C   C1067     1.0  0.9530419745234676  0.0969430662460526  0.502428895300991  1.0000
  C   C1068     1.0  0.9557547055587485  0.11372184496975245  0.527200773247126  1.0000
  C   C1069     1.0  0.040608149494540446  0.1879248764165415  0.519690766297545  1.0000
  C   C1070     1.0  0.05098502545801669  0.16981210526866702  0.5429816468686341  1.0000
  C   C1071     1.0  0.055812288489606905  0.14389061871040373  0.5339670666089488  1.0000
  C   C1072     1.0  0.06477808408635861  0.12816968511764404  0.5533271958257197  1.0000
  C   C1073     1.0  0.06909411912313494  0.13759099089772014  0.5813525528099437  1.0000
  C   C1074     1.0  0.06295311434247423  0.16177746014318928  0.5905343078818629  1.0000
  C   C1075     1.0  0.053519727377630825  0.17743460628143667  0.5717442876401458  1.0000
  C   C1076     1.0  0.05524436451912637  0.21295353487181926  0.4698876751196303  1.0000
  C   C1077     1.0  0.07426311883344862  0.2216540988947126  0.4453365536563169  1.0000
  C   C1078     1.0  0.09991944287836552  0.21554907936050263  0.4419201863396411  1.0000
  C   C1079     1.0  0.11050624005170516  0.2074124371031188  0.4659226314961358  1.0000
  C   C1080     1.0  0.09448455419959245  0.20214395016498488  0.4918990253970837  1.0000
  C   C1081     1.0  0.06446956030750929  0.20148129442529936  0.4935686302525984  1.0000
  C   C1082     1.0  0.112120038150479  0.21122275375551197  0.4101226797460385  1.0000
  C   C1083     1.0  0.03037399003397349  0.1128220729482642  0.3996935433828362  1.0000
  C   C1084     1.0  0.028075562467560617  0.1398621676356833  0.39141624691043836  1.0000
  C   C1085     1.0  0.054218164772031494  0.17051500571605568  0.3930001210930127  1.0000
  C   C1086     1.0  0.08366880012976623  0.17571945033495218  0.4034614064585677  1.0000
  C   C1087     1.0  0.08596557783097161  0.1489548812333943  0.4119294536782579  1.0000
  C   C1088     1.0  0.05974804809457249  0.11806489957286775  0.4100026568039219  1.0000
  C   C1089     1.0  0.1481132105830712  0.21583908576524524  0.4074500260171208  1.0000
  C   C1090     1.0  0.17433382146871065  0.2401004258688943  0.4223864525101659  1.0000
  C   C1091     1.0  0.2051789687254977  0.24734011717063586  0.41681181550221497  1.0000
  C   C1092     1.0  0.21257091699561753  0.23102239259302365  0.3966393881593336  1.0000
  C   C1093     1.0  0.18730707903334795  0.20633098363742375  0.38133217650582124  1.0000
  C   C1094     1.0  0.15560973242735018  0.1992174510726525  0.38624454406530745  1.0000
  C   C1095     1.0  0.11149641794605467  0.233121799736828  0.359543725978013  1.0000
  C   C1096     1.0  0.12067121549105785  0.25895489941898875  0.34113735049770433  1.0000
  C   C1097     1.0  0.13583938543901816  0.29051288953934223  0.3510821085587933  1.0000
  C   C1098     1.0  0.1392477354355332  0.29589556395097666  0.37997120207289203  1.0000
  C   C1099     1.0  0.12983233775354766  0.26996403416812  0.39843330249061193  1.0000
  C   C1100     1.0  0.11601117159168496  0.23826038688227974  0.38874144991469717  1.0000
  H   H677      1.0  0.983964390775411  0.15402173442196826  0.5521998374765531  1.0000
  H   H678      1.0  0.020382667343946864  0.14882490673046703  0.468706735099876  1.0000
  H   H679      1.0  0.9738833963769705  0.09627372091359866  0.46268415532581136  1.0000
  H   H680      1.0  0.9390114954303124  0.10202503434027616  0.5449427360121464  1.0000
  H   H681      1.0  0.050658644779167095  0.13483433525916624  0.5119042779277312  1.0000
  H   H682      1.0  0.06959929932989754  0.10888527108563384  0.5455364209222587  1.0000
  H   H683      1.0  0.0675393733144327  0.1708932138870031  0.6125092226233165  1.0000
  H   H684      1.0  0.049165400694897825  0.19619348028521608  0.5804738134123043  1.0000
  H   H685      1.0  0.03254104974433648  0.21427899155238753  0.46992625392245346  1.0000
  H   H686      1.0  0.0651307864977232  0.22947413589924412  0.42748528428329746  1.0000
  H   H687      1.0  0.13026435662676372  0.20170430091268754  0.46445449372203107  1.0000
  H   H688      1.0  0.10451272108416859  0.19672336684346575  0.510031062723983  1.0000
  H   H689      1.0  0.004569106258051592  0.13562676244374355  0.3846713862168507  1.0000
  H   H690      1.0  0.05072226995414488  0.1913239475135587  0.38887218919093136  1.0000
  H   H691      1.0  0.10806654461910203  0.15228598155341425  0.4209654666061784  1.0000
  H   H692      1.0  0.06169968687050806  0.0978127618245564  0.41673465789656855  1.0000
  H   H693      1.0  0.17164590989415845  0.25466111656007434  0.4388017331114333  1.0000
  H   H694      1.0  0.22502585697088748  0.266012708361648  0.4294720926286918  1.0000
  H   H695      1.0  0.19240432481534  0.19357819362677553  0.3635173426688015  1.0000
  H   H696      1.0  0.13735645105779823  0.18088419680208997  0.37344495459530236  1.0000
  H   H697      1.0  0.10055564724058187  0.2084332126487056  0.3508699251432657  1.0000
  H   H698      1.0  0.11696938448879758  0.25418313692381495  0.3188645216677826  1.0000
  H   H699      1.0  0.152535721420932  0.3211583442101286  0.3883513753528183  1.0000
  H   H700      1.0  0.13475253895671707  0.27605484369270034  0.420791861993474  1.0000
  C   C1101     1.0  0.1654149439082774  0.24779708701355407  0.7678982105946552  1.0000
  C   C1102     1.0  0.19540671179321753  0.2738061766923441  0.7741779823875412  1.0000
  C   C1103     1.0  0.22362790713387135  0.2730371782571988  0.7674909898981882  1.0000
  C   C1104     1.0  0.22240131612999475  0.24482826885220144  0.7560480883274654  1.0000
  C   C1105     1.0  0.1921695070020434  0.2189751656789524  0.7510285574268036  1.0000
  C   C1106     1.0  0.16332771501666596  0.21983322091688642  0.7562967072789927  1.0000
  H   H701      1.0  0.19755009328065345  0.29610199567385137  0.7836190727451052  1.0000
  H   H702      1.0  0.24667182045857325  0.29479054913798597  0.7727870022190828  1.0000
  H   H703      1.0  0.1896562459751966  0.19635076665194517  0.7425240746711138  1.0000
  H   H704      1.0  0.1403195905250514  0.19759285997939313  0.7518408555529141  1.0000
  C   C1107     1.0  0.2366080188402069  0.19094957238974156  0.7783852151620925  1.0000
  C   C1108     1.0  0.25445727636455867  0.21011438255511738  0.7552272171340609  1.0000
  C   C1109     1.0  0.2765017569342226  0.2028052159861924  0.7421254270419408  1.0000
  C   C1110     1.0  0.27856677234264565  0.17615486000996153  0.7497618867341089  1.0000
  C   C1111     1.0  0.2596874111428751  0.15623680660313094  0.7712588529739197  1.0000
  C   C1112     1.0  0.2395622099037853  0.16447350197519725  0.7865339156250795  1.0000
  C   C1113     1.0  0.25357433464766677  0.24253149182356462  0.7466069979699014  1.0000
  C   C1114     1.0  0.28573580636639656  0.26828785408243655  0.7639974649758661  1.0000
  C   C1115     1.0  0.31652407306146724  0.28475380481880325  0.7506470559322188  1.0000
  C   C1116     1.0  0.34371306364535553  0.30440719046910186  0.7662800441429047  1.0000
  C   C1117     1.0  0.3418020523232042  0.30788637043622336  0.795359888404296  1.0000
  C   C1118     1.0  0.31154808252307287  0.2922791679133688  0.8083888074244165  1.0000
  C   C1119     1.0  0.28415378696633087  0.27140163225614666  0.7935016760683123  1.0000
  C   C1120     1.0  0.24216966100093223  0.2234793673833727  0.6935268518188391  1.0000
  C   C1121     1.0  0.23815933498480896  0.2287685520050896  0.665475775632733  1.0000
  C   C1122     1.0  0.24073245395392667  0.2581194594737991  0.6564740549739886  1.0000
  C   C1123     1.0  0.25574554952734363  0.28400685766012745  0.6758427572580534  1.0000
  C   C1124     1.0  0.26191209736690163  0.2790056690945513  0.7027943375636986  1.0000
  C   C1125     1.0  0.25396613335603246  0.24864267723539502  0.7130198635786674  1.0000
  C   C1126     1.0  0.22924607376105613  0.2619036289931686  0.6255702906457898  1.0000
  C   C1127     1.0  0.32165790025662194  0.2872458779638773  0.584149516014625  1.0000
  C   C1128     1.0  0.297513234848311  0.25522522906759715  0.5862156252324892  1.0000
  C   C1129     1.0  0.26734230285035326  0.2473767547412943  0.5973970482507437  1.0000
  C   C1130     1.0  0.2616841216176873  0.27163208946101985  0.6082484081781776  1.0000
  C   C1131     1.0  0.28626200136316754  0.3038631038912741  0.6066602474619562  1.0000
  C   C1132     1.0  0.31542312711686804  0.31123547756329556  0.5931298040051342  1.0000
  C   C1133     1.0  0.21715493838040242  0.28754799737326986  0.6208701065018313  1.0000
  C   C1134     1.0  0.20426503156693018  0.297761868044755  0.6429564711181075  1.0000
  C   C1135     1.0  0.19997331432958532  0.3241712065575299  0.6397844362193119  1.0000
  C   C1136     1.0  0.20569663829928805  0.33897244876245075  0.6137008789771885  1.0000
  C   C1137     1.0  0.21478174105401285  0.3269202113717563  0.5908879469077422  1.0000
  C   C1138     1.0  0.21905997424407664  0.3007288770926073  0.5938756608597159  1.0000
  C   C1139     1.0  0.18872277778283097  0.22068160824954905  0.5874137113868315  1.0000
  C   C1140     1.0  0.16183198728447118  0.19151357170730654  0.5804523807440692  1.0000
  C   C1141     1.0  0.1419746795483493  0.17169391108383045  0.6016492896285887  1.0000
  C   C1142     1.0  0.1464000582282239  0.18252100169410523  0.6297710936198706  1.0000
  C   C1143     1.0  0.17296542198805398  0.2113259666174668  0.6364280803736944  1.0000
  C   C1144     1.0  0.19632049891232362  0.22955559868611455  0.6157069767239943  1.0000
  H   H705      1.0  0.22082628000995577  0.19751509372445308  0.7910283461539812  1.0000
  H   H706      1.0  0.2930885419922673  0.21876300863623882  0.7258065934477315  1.0000
  H   H707      1.0  0.2967544662861558  0.17212975258707006  0.7388247961337345  1.0000
  H   H708      1.0  0.2258386418348074  0.1494441088245173  0.8049938727759759  1.0000
  H   H709      1.0  0.31908738788373253  0.2821392155913619  0.7285328288472369  1.0000
  H   H710      1.0  0.36743308898154353  0.3160955133597875  0.7559023461834667  1.0000
  H   H711      1.0  0.3098075366244474  0.29298122325815984  0.8316839745291528  1.0000
  H   H712      1.0  0.2615900393622444  0.2575524780915207  0.8048781363675064  1.0000
  H   H713      1.0  0.2352760968520997  0.1997935631532437  0.7001859818394863  1.0000
  H   H714      1.0  0.2282648646794739  0.20770600815855586  0.6518467419020293  1.0000
  H   H715      1.0  0.2614263575717498  0.30860344644299526  0.6708189398237447  1.0000
  H   H716      1.0  0.2719228533270246  0.29972957249370513  0.7174821451052166  1.0000
  H   H717      1.0  0.30165093443993274  0.2357227552494625  0.580295922265953  1.0000
  H   H718      1.0  0.24971496412898223  0.2222411106916596  0.6014499658140021  1.0000
  H   H719      1.0  0.28408485496064284  0.3239645767603622  0.6149311141338835  1.0000
  H   H720      1.0  0.3335125815485891  0.3361190217857002  0.5928726119863129  1.0000
  H   H721      1.0  0.19902054036470118  0.28560378823912425  0.6638554659141589  1.0000
  H   H722      1.0  0.19349972158890957  0.3337485721277661  0.6587116255377337  1.0000
  H   H723      1.0  0.2188229571307198  0.3379738355090591  0.5701797028589831  1.0000
  H   H724      1.0  0.2285322677864978  0.29318200326636235  0.5749827638104703  1.0000
  H   H725      1.0  0.20510014743038693  0.23449754507453432  0.570166843258042  1.0000
  H   H726      1.0  0.15782757800916153  0.18355191295418063  0.5583167209908523  1.0000
  H   H727      1.0  0.12940305337580607  0.1656881757118997  0.6453226376912632  1.0000
  H   H728      1.0  0.17488149538777414  0.21950235809138652  0.6583429836440897  1.0000
  C   C1145     1.0  0.35658727571974314  0.1011250584490655  0.5364511128573975  1.0000
  C   C1146     1.0  0.32674589978378243  0.09326487013195224  0.5488541979650532  1.0000
  C   C1147     1.0  0.3128500403323041  0.1123368355019379  0.5445783806521496  1.0000
  C   C1148     1.0  0.3285156549347735  0.13968998209079425  0.5273893807275949  1.0000
  C   C1149     1.0  0.3586925018494542  0.14768558050924488  0.5157257226740505  1.0000
  C   C1150     1.0  0.37216203960614913  0.1281880234298491  0.5198193623069557  1.0000
  H   H729      1.0  0.31475573662830086  0.07274797046043746  0.5627211343131664  1.0000
  H   H730      1.0  0.2889864163341835  0.10550793399821633  0.5529735567998404  1.0000
  H   H731      1.0  0.3714601277564897  0.16701412234596488  0.501102213137238  1.0000
  H   H732      1.0  0.3944446468607334  0.13389897099528375  0.5083936068708209  1.0000
  C   C1151     1.0  0.3578447773545376  0.2131714981035338  0.5370169352988043  1.0000
  C   C1152     1.0  0.3320519179067553  0.19726092109529297  0.5180383075766184  1.0000
  C   C1153     1.0  0.3201605596359542  0.21488725553812066  0.5044414228482674  1.0000
  C   C1154     1.0  0.3308088250817556  0.24695627182949398  0.512071452739965  1.0000
  C   C1155     1.0  0.35456204000227354  0.2620433795442099  0.5322438800828464  1.0000
  C   C1156     1.0  0.36888161342296666  0.24553068556016927  0.543853956465803  1.0000
  C   C1157     1.0  0.3103849121805352  0.15821928363409019  0.5184348119389679  1.0000
  C   C1158     1.0  0.2818217293158855  0.15567496609520834  0.5389587350409049  1.0000
  C   C1159     1.0  0.2535313055538941  0.1533167017247378  0.5280323607746481  1.0000
  C   C1160     1.0  0.23009296626835626  0.15483738383944493  0.5453349538408487  1.0000
  C   C1161     1.0  0.23487711105267337  0.15788641506074613  0.5744833826405923  1.0000
  C   C1162     1.0  0.26318092476524785  0.16111476431839408  0.5859155678771976  1.0000
  C   C1163     1.0  0.2864255111258885  0.16016394604209513  0.5681778916458242  1.0000
  C   C1164     1.0  0.3163436168119396  0.15353610151535899  0.4642980352439148  1.0000
  C   C1165     1.0  0.30710329444319573  0.13844290387608293  0.4382316241363794  1.0000
  C   C1166     1.0  0.2768803144724608  0.11225563094779058  0.43391508475382917  1.0000
  C   C1167     1.0  0.25766327081617446  0.09912854753927791  0.4582368766670269  1.0000
  C   C1168     1.0  0.26876218588577894  0.11189027609919053  0.48494626782161543  1.0000
  C   C1169     1.0  0.298047919222387  0.14070853995651966  0.48833048613593866  1.0000
  C   C1170     1.0  0.26349534188986296  0.10420767992931669  0.40183895347317017  1.0000
  C   C1171     1.0  0.2596502050194448  0.19478941965860572  0.4017253603315242  1.0000
  C   C1172     1.0  0.28463469566487204  0.19277947351932162  0.3868618049104785  1.0000
  C   C1173     1.0  0.2839834076094464  0.16338541119904146  0.38426630878720713  1.0000
  C   C1174     1.0  0.2592877831368991  0.13537664584592088  0.396305038534866  1.0000
  C   C1175     1.0  0.23441699057741974  0.13785177186688782  0.4102662786232137  1.0000
  C   C1176     1.0  0.2341445396956878  0.16653107618850876  0.41193374021190493  1.0000
  C   C1177     1.0  0.231720052641845  0.07078117182217514  0.39783747431367605  1.0000
  C   C1178     1.0  0.2286259089921627  0.042145492119557204  0.4090017511973425  1.0000
  C   C1179     1.0  0.2028936853281803  0.012764269677051354  0.4015924777884665  1.0000
  C   C1180     1.0  0.17898727791802096  0.011361314801003886  0.3840369792370915  1.0000
  C   C1181     1.0  0.1805212327630204  0.038873912294020485  0.37409436444282607  1.0000
  C   C1182     1.0  0.20690354399175853  0.06824899064335188  0.3803184112983008  1.0000
  C   C1183     1.0  0.2861977004656222  0.10007663106790571  0.3515279080580834  1.0000
  C   C1184     1.0  0.30383318550629324  0.09108953823575848  0.3336402031490644  1.0000
  C   C1185     1.0  0.32217767059198144  0.07880087541090901  0.34519026806096276  1.0000
  C   C1186     1.0  0.32555216750858096  0.07853189877990255  0.3738178830225933  1.0000
  C   C1187     1.0  0.3079767410630788  0.08712564273036798  0.39189205214525774  1.0000
  C   C1188     1.0  0.2880917163594268  0.09835963202841086  0.38099568361453007  1.0000
  H   H733      1.0  0.3673084733281322  0.20034859753999465  0.5485905761457613  1.0000
  H   H734      1.0  0.2991883846784485  0.2021082751140965  0.4903580165509796  1.0000
  H   H735      1.0  0.3190638553632859  0.2594189335039932  0.50233673482758  1.0000
  H   H736      1.0  0.38725573647662936  0.2567268445259532  0.5608672085108298  1.0000
  H   H737      1.0  0.24876242202776158  0.15245119804837368  0.5055902138656692  1.0000
  H   H738      1.0  0.20825184357372215  0.1527383476143789  0.5370705169693921  1.0000
  H   H739      1.0  0.2669623357802949  0.16252977860328818  0.6084027233894704  1.0000
  H   H740      1.0  0.30825084356820287  0.16306944294331438  0.5774153716551548  1.0000
  H   H741      1.0  0.33968026251734373  0.17591368627484927  0.46488100381990966  1.0000
  H   H742      1.0  0.3235981789982541  0.14926103414685976  0.4200310022711278  1.0000
  H   H743      1.0  0.23345716291792962  0.07905358374437509  0.45602073877151705  1.0000
  H   H744      1.0  0.2530638043854528  0.09955600144916743  0.503251909761219  1.0000
  H   H745      1.0  0.30537938054872354  0.21498055406714492  0.3795618381096015  1.0000
  H   H746      1.0  0.30423305633225367  0.16254786632826004  0.37523672565975724  1.0000
  H   H747      1.0  0.2137252828920822  0.11667794745587051  0.4190129505299603  1.0000
  H   H748      1.0  0.2154933508384443  0.16746522027788302  0.4252820059887287  1.0000
  H   H749      1.0  0.24838507190934486  0.04241539049358889  0.42072327745512167  1.0000
  H   H750      1.0  0.20077355383853707  0.9897720538053968  0.40862453623640466  1.0000
  H   H751      1.0  0.16158574107797918  0.03769582502420521  0.36086826487494245  1.0000
  H   H752      1.0  0.20952022970337214  0.08900041255455238  0.3681275096061727  1.0000
  H   H753      1.0  0.27117679051639726  0.10917269812834021  0.3422754251809884  1.0000
  H   H754      1.0  0.300888741068754  0.09101949775640077  0.3106772424019723  1.0000
  H   H755      1.0  0.3398430042971267  0.06883293109098831  0.38220448610299  1.0000
  H   H756      1.0  0.3094784436582595  0.0840119144203617  0.41485501289234983  1.0000
  C   C1189     1.0  0.009787569966150758  0.020627469539383547  0.7592458424281432  1.0000
  C   C1190     1.0  0.9811084382544334  0.017603827384830684  0.7491982075595257  1.0000
  C   C1191     1.0  0.9808770708146528  0.04358683743714997  0.7370866067398675  1.0000
  C   C1192     1.0  0.009592716915657594  0.07330599570970753  0.7337602566297791  1.0000
  C   C1193     1.0  0.0378622163427939  0.07430639494635782  0.741437438391594  1.0000
  C   C1194     1.0  0.03847448832284531  0.04866063351073491  0.7542155951933638  1.0000
  H   H757      1.0  0.9586524914763929  0.996225214861393  0.753435446069606  1.0000
  H   H758      1.0  0.957692470778963  0.040686944605328845  0.7301017001620467  1.0000
  H   H759      1.0  0.06059233648648357  0.09598734785498729  0.7377917415248024  1.0000
  H   H760      1.0  0.061219156377485574  0.05262984856052233  0.7629729834342279  1.0000
  C   C1195     1.0  0.05337038111935029  0.14624155233231276  0.7553815323453535  1.0000
  C   C1196     1.0  0.04081285443752084  0.1385319633445651  0.7281234648839464  1.0000
  C   C1197     1.0  0.05287339693807095  0.16361934945179113  0.7085211465161189  1.0000
  C   C1198     1.0  0.07532265848363293  0.19513058515193696  0.7160247236652293  1.0000
  C   C1199     1.0  0.08625935537458167  0.20175283524101256  0.743897908704984  1.0000
  C   C1200     1.0  0.07536061693166181  0.17685503371012104  0.7636245365485752  1.0000
  C   C1201     1.0  0.008980432109619166  0.10525536281248025  0.7235797392181039  1.0000
  C   C1202     1.0  0.9835456237610635  0.1114825314517421  0.741634618939357  1.0000
  C   C1203     1.0  0.9719268044417687  0.13166600036958243  0.7315912706043864  1.0000
  C   C1204     1.0  0.9512334269702952  0.1372282944680539  0.7481287174145939  1.0000
  C   C1205     1.0  0.9409987276269878  0.12307073455024257  0.7743151514642459  1.0000
  C   C1206     1.0  0.9502709085408091  0.10185264625988537  0.7836619380815752  1.0000
  C   C1207     1.0  0.9719749542745663  0.09670536087503942  0.7681918381494762  1.0000
  C   C1208     1.0  0.02046759733268642  0.09401566959027194  0.6721477652543213  1.0000
  C   C1209     1.0  0.009867358618239647  0.07511063259489045  0.6480145808215925  1.0000
  C   C1210     1.0  0.9762719820832535  0.055222031261546345  0.6439059383209227  1.0000
  C   C1211     1.0  0.9557710431485273  0.06275882368298613  0.6588080725447916  1.0000
  C   C1212     1.0  0.9665133457989625  0.08201937046967767  0.6829069647083442  1.0000
  C   C1213     1.0  0.998717120894808  0.09573716991075662  0.691066381505449  1.0000
  C   C1214     1.0  0.9636294609719076  0.02203839051307277  0.6267147951295445  1.0000
  C   C1215     1.0  0.9476388746632668  0.03863910236364343  0.5385900931472611  1.0000
  C   C1216     1.0  0.9773174251108294  0.04307560994023718  0.5468866790210705  1.0000
  C   C1217     1.0  0.9840014516469922  0.041508913979872775  0.574716998724355  1.0000
  C   C1218     1.0  0.9603650997057906  0.033591863164003755  0.5957874548662873  1.0000
  C   C1219     1.0  0.9319203052328089  0.03231349149260798  0.5877587773454167  1.0000
  C   C1220     1.0  0.9250863659142974  0.03442165751046855  0.5598877355724855  1.0000
  C   C1221     1.0  0.9297538285653416  0.9916155884370985  0.6372296621656873  1.0000
  C   C1222     1.0  0.9173681357005006  0.986663662413594  0.6651757182774414  1.0000
  C   C1223     1.0  0.8872268317832217  0.9629040008824139  0.6722142065258501  1.0000
  C   C1224     1.0  0.8681743777782146  0.9405820997830179  0.6513537905326219  1.0000
  C   C1225     1.0  0.8820476151051223  0.9411365162441583  0.6252273679540282  1.0000
  C   C1226     1.0  0.9126153025184927  0.9660424317776705  0.6181610172369139  1.0000
  C   C1227     1.0  0.9942953741265435  0.990762930551856  0.6116026207569717  1.0000
  C   C1228     1.0  0.014858408466449216  0.9786239055441952  0.617661636067036  1.0000
  C   C1229     1.0  0.026508610201901324  0.9806592479639756  0.6448103969204442  1.0000
  C   C1230     1.0  0.01481276715916458  0.9921044439492458  0.6668903317362499  1.0000
  C   C1231     1.0  0.9948802402196995  0.00468431138395542  0.6612299640553585  1.0000
  C   C1232     1.0  0.9858378457318931  0.006301344674757958  0.6331874609365464  1.0000
  H   H761      1.0  0.04428004372887804  0.12838487675294838  0.7721225895037945  1.0000
  H   H762      1.0  0.04318497782862715  0.16016988780055577  0.687217074290424  1.0000
  H   H763      1.0  0.08430845462416856  0.2148034061723124  0.700436744057837  1.0000
  H   H764      1.0  0.0836612819753331  0.18127581401537043  0.7861181218613185  1.0000
  H   H765      1.0  0.9815636367396896  0.14426398072710367  0.7114102701942111  1.0000
  H   H766      1.0  0.9445115069702603  0.1543628318106508  0.7403465155784271  1.0000
  H   H767      1.0  0.9427455912326499  0.09075207351618747  0.8044237638009222  1.0000
  H   H768      1.0  0.9821602654621547  0.08322946519417782  0.7783187738905635  1.0000
  H   H769      1.0  0.045942294643634515  0.10439741504890472  0.677670963858508  1.0000
  H   H770      1.0  0.02721916126656873  0.07080743662709033  0.6355450544424079  1.0000
  H   H771      1.0  0.9296398943476679  0.049402943560588275  0.655543877172585  1.0000
  H   H772      1.0  0.9477720938061559  0.08063898157598458  0.6977297980597432  1.0000
  H   H773      1.0  0.99496351315114  0.046503036070931314  0.5307907451765062  1.0000
  H   H774      1.0  0.007843707219048004  0.044546166927085906  0.5798094006970161  1.0000
  H   H775      1.0  0.9125471095281983  0.02604807301314671  0.6034453472266904  1.0000
  H   H776      1.0  0.9017900711792367  0.030087302886811607  0.5531878834821915  1.0000
  H   H777      1.0  0.9303456335092418  0.005282426426644227  0.6808087064881274  1.0000
  H   H778      1.0  0.8790546493108795  0.9623459358179826  0.6940776713924812  1.0000
  H   H779      1.0  0.868676696888911  0.9251650166449633  0.6080426545631206  1.0000
  H   H780      1.0  0.9218829489036352  0.9659841136600684  0.596458297382046  1.0000
  H   H781      1.0  0.986953342010492  0.9890172175874286  0.5900735055148081  1.0000
  H   H782      1.0  0.02199455942378386  0.969025135374496  0.5996539082159003  1.0000
  H   H783      1.0  0.020813112728059364  0.991231724258436  0.6890967192946427  1.0000
  H   H784      1.0  0.9882300535943646  0.014687631276901536  0.6789054855488501  1.0000
  C   C1233     1.0  0.9224952751129235  0.7927139589762788  0.5421693487425236  1.0000
  C   C1234     1.0  0.9269893557010292  0.8227598730970459  0.5501080090568068  1.0000
  C   C1235     1.0  0.9569662841047276  0.8500613065031278  0.5471803065758915  1.0000
  C   C1236     1.0  0.9832308938079078  0.8481905156624897  0.5361103334324594  1.0000
  C   C1237     1.0  0.9782574400293151  0.8182187452863824  0.5270314551680687  1.0000
  C   C1238     1.0  0.9483339359509505  0.7907764546201528  0.5299613009158076  1.0000
  H   H785      1.0  0.90658276330086  0.8234796498805146  0.5604621310811863  1.0000
  H   H786      1.0  0.9597298521790041  0.8735524331728259  0.5528728232591354  1.0000
  H   H787      1.0  0.9971614493811582  0.8154428092834418  0.5169773904989806  1.0000
  H   H788      1.0  0.9457583932300646  0.7673127856522516  0.5221812423464643  1.0000
  C   C1239     1.0  0.0570217921540898  0.8612825532133174  0.5481790689156473  1.0000
  C   C1240     1.0  0.04814286546298665  0.8749831259887381  0.5258183661459617  1.0000
  C   C1241     1.0  0.07124567131192884  0.8917411769014965  0.5049300876840279  1.0000
  C   C1242     1.0  0.10209581630905781  0.8957903463489011  0.5066532742101303  1.0000
  C   C1243     1.0  0.1109862350859241  0.8850419043373293  0.5301949169995702  1.0000
  C   C1244     1.0  0.08802863865544185  0.8670089157459522  0.55034805494104  1.0000
  C   C1245     1.0  0.017910924914346562  0.8805733815274133  0.531054366995798  1.0000
  C   C1246     1.0  0.02991829462630609  0.9039603930335356  0.5585417640073209  1.0000
  C   C1247     1.0  0.05605800570709606  0.9356397556077304  0.5560705773598131  1.0000
  C   C1248     1.0  0.0691165606288639  0.9546910457306061  0.580295922265953  1.0000
  C   C1249     1.0  0.057861198220174194  0.9425312400078354  0.6068424251419547  1.0000
  C   C1250     1.0  0.03270408047239815  0.9107417836354463  0.6098322823607518  1.0000
  C   C1251     1.0  0.019535299448877465  0.8921441512493367  0.5862199117661362  1.0000
  C   C1252     1.0  0.002984384966414086  0.8786995386758879  0.4779485016428535  1.0000
  C   C1253     1.0  0.9972536627994925  0.8900539603560507  0.45325163803554136  1.0000
  C   C1254     1.0  0.00018717652030660558  0.920526378763078  0.45236646883743153  1.0000
  C   C1255     1.0  0.005590257932909762  0.9371058680592397  0.47833428967108543  1.0000
  C   C1256     1.0  0.00810961976385312  0.9239991286288124  0.5034126547729824  1.0000
  C   C1257     1.0  0.009841353644335379  0.8955015402153538  0.503620551654863  1.0000
  C   C1258     1.0  0.0033110631170504097  0.9379225288129891  0.4219749452800519  1.0000
  C   C1259     1.0  0.09925518728446842  0.9518983936744391  0.40220973863363757  1.0000
  C   C1260     1.0  0.07188135587722842  0.9251030901249644  0.3922735536398427  1.0000
  C   C1261     1.0  0.04196740498850019  0.921545349795922  0.39701445985344797  1.0000
  C   C1262     1.0  0.03757813893141957  0.9439337553617272  0.4127481816048389  1.0000
  C   C1263     1.0  0.06563836959825758  0.9712563902812046  0.4235566761958027  1.0000
  C   C1264     1.0  0.09594802276299146  0.9751854075586582  0.417941317118205  1.0000
  C   C1265     1.0  0.9991825612006913  0.9690578283231966  0.4218163435351121  1.0000
  C   C1266     1.0  0.9778865127533495  0.9726836554689265  0.4403448852243608  1.0000
  C   C1267     1.0  0.9750941695729642  0.0002130971527303238  0.4404241860968307  1.0000
  C   C1268     1.0  0.9932031912611876  0.025237765066195683  0.42165559852334883  1.0000
  C   C1269     1.0  0.014494277866136397  0.02209239512589023  0.40299203102421893  1.0000
  C   C1270     1.0  0.016257971263191062  0.9938114537822511  0.4025826670609284  1.0000
  C   C1271     1.0  0.9750911064920026  0.9160170621036506  0.3728084043487198  1.0000
  C   C1272     1.0  0.9484560328476028  0.9011149248413521  0.35585945030839833  1.0000
  C   C1273     1.0  0.9182685202659708  0.8845770371418696  0.36872976758357917  1.0000
  C   C1274     1.0  0.9156004684413394  0.8814042857349652  0.39788891271744026  1.0000
  C   C1275     1.0  0.9426712770157075  0.8968027590160517  0.4143449153883543  1.0000
  C   C1276     1.0  0.9731452740130254  0.9150905593881571  0.40187538900916986  1.0000
  H   H789      1.0  0.04034257160239241  0.8479929019163646  0.5652673352994969  1.0000
  H   H790      1.0  0.06684056196190973  0.9044300854147517  0.48834334573687965  1.0000
  H   H791      1.0  0.1202219788380297  0.9096890579039724  0.4901672658036872  1.0000
  H   H792      1.0  0.0947301943349341  0.857244088862205  0.5684650894001747  1.0000
  H   H793      1.0  0.06808255651586458  0.9451044493217904  0.5359560182211666  1.0000
  H   H794      1.0  0.08791006967412275  0.9799676945818793  0.5768302598123364  1.0000
  H   H795      1.0  0.021793031046825877  0.9008841897286496  0.6293467267888155  1.0000
  H   H796      1.0  0.0004904313173084351  0.8673190572027932  0.589627706015518  1.0000
  H   H797      1.0  0.0021031898569955627  0.85597081274402  0.47683828942827505  1.0000
  H   H798      1.0  0.9940307639896203  0.8779417384498205  0.433771485876654  1.0000
  H   H799      1.0  0.01221908008774307  0.962456093605741  0.47897083991766803  1.0000
  H   H800      1.0  0.012435450357478277  0.9384804411480374  0.5224748699012852  1.0000
  H   H801      1.0  0.07479792674216562  0.9062937333211214  0.3809206692757072  1.0000
  H   H802      1.0  0.02251959095531342  0.9000161065074382  0.3880641775984679  1.0000
  H   H803      1.0  0.06454452744362445  0.9900156921300494  0.43676134309545117  1.0000
  H   H804      1.0  0.11720303768345523  0.9957500715185869  0.42676728989742146  1.0000
  H   H805      1.0  0.963257436391367  0.9543730230772075  0.4556028017409325  1.0000
  H   H806      1.0  0.9570903948427648  0.0011386208923549468  0.4536567154651849  1.0000
  H   H807      1.0  0.02806046151421354  0.04102629364954802  0.3874447734864734  1.0000
  H   H808      1.0  0.031040541824434827  0.9905353884173297  0.3863881429424826  1.0000
  H   H809      1.0  0.9980541327716698  0.931624335461448  0.3621263625003432  1.0000
  H   H810      1.0  0.9512280392775383  0.9052522394552618  0.3322427931801355  1.0000
  H   H811      1.0  0.8919673101624582  0.868416771865931  0.4075421864905318  1.0000
  H   H812      1.0  0.9394229668031272  0.8956417207747314  0.4375479220196795  1.0000
  C   C1277     1.0  0.2278641647279746  0.06960053437802172  0.758007034204154  1.0000
  C   C1278     1.0  0.22762988787780777  0.0402862481302142  0.7595544728507287  1.0000
  C   C1279     1.0  0.1992430116379716  0.011760213797352703  0.756886105655458  1.0000
  C   C1280     1.0  0.1696321978567688  0.010531306419875985  0.7514657838587999  1.0000
  C   C1281     1.0  0.17058839322701225  0.040115126692619185  0.7491274797543498  1.0000
  C   C1282     1.0  0.1994008067569643  0.0691027565374871  0.752616718143025  1.0000
  H   H813      1.0  0.2490468967931282  0.03857185244861583  0.761961361493531  1.0000
  H   H814      1.0  0.1997025665065566  0.988880687607534  0.7572547475491018  1.0000
  H   H815      1.0  0.14925333895654028  0.04118757211046131  0.7441486709233348  1.0000
  H   H816      1.0  0.19895616015565237  0.0915254985342669  0.7505420358578667  1.0000
  C   C1283     1.0  0.09990761855085455  0.9901512971524711  0.7728791626924938  1.0000
  C   C1284     1.0  0.10377111630633779  0.9762517104235083  0.7480236973402419  1.0000
  C   C1285     1.0  0.07781022589523222  0.9620824190195082  0.7293279808387593  1.0000
  C   C1286     1.0  0.049880565433367725  0.9619689599577945  0.7349712023850625  1.0000
  C   C1287     1.0  0.04576993614975041  0.9752871023076031  0.7595116075142585  1.0000
  C   C1288     1.0  0.07073301265344396  0.9896616196844252  0.7785952553107964  1.0000
  C   C1289     1.0  0.13708513094383487  0.9769088027495827  0.7414803037280641  1.0000
  C   C1290     1.0  0.13149174053097987  0.9449479757874326  0.7564317330888738  1.0000
  C   C1291     1.0  0.11280239335892851  0.9145852632178559  0.743503547609458  1.0000
  C   C1292     1.0  0.10601204593604803  0.8866996726479377  0.7576469653778042  1.0000
  C   C1293     1.0  0.11924492327955909  0.8877086736631116  0.7835633478076939  1.0000
  C   C1294     1.0  0.13949756784923414  0.9175176047629279  0.7964786736861685  1.0000
  C   C1295     1.0  0.14475535795886693  0.9452072543175548  0.7833597374594603  1.0000
  C   C1296     1.0  0.13918718208605876  0.9965702386243948  0.6891781634339362  1.0000
  C   C1297     1.0  0.15521105654427492  0.005588681026346576  0.6638404630463943  1.0000
  C   C1298     1.0  0.17952263029093116  0.997919870381113  0.6571834762925706  1.0000
  C   C1299     1.0  0.18067061786889416  0.9740741679496847  0.6739631122538347  1.0000
  C   C1300     1.0  0.16525484896253656  0.965767909311915  0.6994851335881984  1.0000
  C   C1301     1.0  0.14593198281985983  0.9785437935955384  0.7083196794347089  1.0000
  C   C1302     1.0  0.20585941274664732  0.016166673849325797  0.6331853176697229  1.0000
  C   C1303     1.0  0.17408347485668446  0.9457503866277337  0.5630426243366929  1.0000
  C   C1304     1.0  0.15572876225740734  0.9603084481781775  0.5693995537352253  1.0000
  C   C1305     1.0  0.1634832895297551  0.9803634486664285  0.5930612194667818  1.0000
  C   C1306     1.0  0.19250120096046006  0.9895283296153286  0.6082398351108836  1.0000
  C   C1307     1.0  0.20894050351285973  0.972132420263154  0.6022944129424653  1.0000
  C   C1308     1.0  0.19994597147542062  0.9510145441814489  0.5796915210217229  1.0000
  C   C1309     1.0  0.24350469162830696  0.027836785419745214  0.6402409520527196  1.0000
  C   C1310     1.0  0.254003293454627  0.026305794186388454  0.6678397989390651  1.0000
  C   C1311     1.0  0.282635633897429  0.026877279060457226  0.6719505847065583  1.0000
  C   C1312     1.0  0.30069588741661324  0.02784944044660853  0.648151749898297  1.0000
  C   C1313     1.0  0.2947523949352751  0.03608570035036429  0.6219931783173508  1.0000
  C   C1314     1.0  0.26685991898322725  0.03846220429951597  0.6185167995296167  1.0000
  C   C1315     1.0  0.1984866318475943  0.057465271902482185  0.6041161897424492  1.0000
  C   C1316     1.0  0.19335501826447843  0.08359070425122449  0.6021679601998782  1.0000
  C   C1317     1.0  0.20317257522733378  0.10587635687565859  0.6240935798043912  1.0000
  C   C1318     1.0  0.21593321123482115  0.10088797997118369  0.6489340422888784  1.0000
  C   C1319     1.0  0.218761602848704  0.0736138807983498  0.6509744323048605  1.0000
  C   C1320     1.0  0.2091487262130301  0.050807824546849734  0.6295524804038725  1.0000
  H   H817      1.0  0.1194768503099444  0.9999648128260687  0.7881135032740068  1.0000
  H   H818      1.0  0.0791225863367699  0.9489744984281026  0.7106429806713942  1.0000
  H   H819      1.0  0.029993339995166096  0.9498717676329229  0.7202855381103683  1.0000
  H   H820      1.0  0.06869513247805635  0.9991050648863474  0.7989627199346172  1.0000
  H   H821      1.0  0.10235255323313357  0.9120638679359405  0.7224523808689375  1.0000
  H   H822      1.0  0.08975120532374317  0.8633931628345419  0.7480922818785942  1.0000
  H   H823      1.0  0.1492188761514444  0.9185223457792349  0.8179370611231561  1.0000
  H   H824      1.0  0.15729574217844322  0.9672993559485814  0.7952184327939442  1.0000
  H   H825      1.0  0.12544930701793705  0.008380525417309048  0.695239322010824  1.0000
  H   H826      1.0  0.15071396094825742  0.02085884321011844  0.6502114293156908  1.0000
  H   H827      1.0  0.196991063000128  0.9654692237024329  0.6685084981880003  1.0000
  H   H828      1.0  0.17027954117993302  0.9511432242883361  0.7137121387626614  1.0000
  H   H829      1.0  0.13432455726710907  0.9549035715784507  0.5566706920703961  1.0000
  H   H830      1.0  0.1480535436123866  0.9898643174276287  0.5999818280398974  1.0000
  H   H831      1.0  0.22827051831221623  0.9737524617972976  0.6154990798421138  1.0000
  H   H832      1.0  0.212649499838299  0.9380805973765206  0.5746677035874143  1.0000
  H   H833      1.0  0.2389863522404923  0.02172164719507519  0.6868227131948981  1.0000
  H   H834      1.0  0.2877967050485965  0.02132176750015624  0.6932932357350763  1.0000
  H   H835      1.0  0.310044285057893  0.03955273089218503  0.6030359832633999  1.0000
  H   H836      1.0  0.25888033487689116  0.041600132084628205  0.5976178047335653  1.0000
  H   H837      1.0  0.19159042105685167  0.04236357880763131  0.585489057779319  1.0000
  H   H838      1.0  0.1837634940345985  0.08712026486509036  0.5823170228805234  1.0000
  H   H839      1.0  0.22399149594099824  0.11869240093421457  0.6658829963291999  1.0000
  H   H840      1.0  0.22724883674062257  0.07054683225946023  0.6709496790999788  1.0000
  C   C1321     1.0  0.030469873309331104  0.984266864864673  0.8783364634765071  1.0000
  C   C1322     1.0  0.017194663543049278  0.9509524666968019  0.878315030808272  1.0000
  C   C1323     1.0  0.03282367208807946  0.936566925023887  0.8905788035723993  1.0000
  C   C1324     1.0  0.06430643118995986  0.9546821231907613  0.8997498423102009  1.0000
  C   C1325     1.0  0.07492809881649021  0.9874307246750456  0.9044478831873362  1.0000
  C   C1326     1.0  0.05888168578579547  0.00264788933556126  0.8932814630368462  1.0000
  H   H841      1.0  0.9949054379800507  0.9374690744316255  0.8676887138973066  1.0000
  H   H842      1.0  0.022908044484514035  0.9107234167878623  0.8890849465964125  1.0000
  H   H843      1.0  0.09811028535014428  0.0028427951186607014  0.9143947845152487  1.0000
  H   H844      1.0  0.07017615696977555  0.028644414978328925  0.8940037439563693  1.0000
  C   C1327     1.0  0.13682267510074242  0.9878943864400644  0.8811355699480119  1.0000
  C   C1328     1.0  0.12636392123224915  0.965964087518916  0.9038477684767532  1.0000
  C   C1329     1.0  0.1500066504853679  0.9693174682088662  0.9230128604125846  1.0000
  C   C1330     1.0  0.1816718251329243  0.9940966256293928  0.9212210893481297  1.0000
  C   C1331     1.0  0.18996938508714242  0.017093851672381977  0.9002920888165492  1.0000
  C   C1332     1.0  0.16716314756247208  0.014351936318192315  0.8809469624675429  1.0000
  C   C1333     1.0  0.08784470823364424  0.9390876611083326  0.9052216025106234  1.0000
  C   C1334     1.0  0.08600014461737597  0.9136440339014471  0.8809876845371897  1.0000
  C   C1335     1.0  0.10098698035644937  0.8953164530837009  0.8854156737945624  1.0000
  C   C1336     1.0  0.097793792071332  0.8720419953596737  0.8659419514361456  1.0000
  C   C1337     1.0  0.08075012319779523  0.8675094668202726  0.8409600333413064  1.0000
  C   C1338     1.0  0.0685598408795493  0.888257043209482  0.8353082387277091  1.0000
  C   C1339     1.0  0.07255412123875876  0.9114116150174486  0.8545011931322463  1.0000
  C   C1340     1.0  0.08447840970538815  0.9373012981650244  0.9605971874296656  1.0000
  C   C1341     1.0  0.07351217028540713  0.9212058836075186  0.9860077588892068  1.0000
  C   C1342     1.0  0.05274085538738251  0.8876331711455949  0.9872572834473134  1.0000
  C   C1343     1.0  0.044795465716805746  0.871339958128468  0.9611908723397781  1.0000
  C   C1344     1.0  0.053835884231806075  0.8873138172861194  0.9357417220774137  1.0000
  C   C1345     1.0  0.07507880018972822  0.9203430878682817  0.9346786617329524  1.0000
  C   C1346     1.0  0.038836356270536866  0.8678478087563394  0.016296405639057987  1.0000
  C   C1347     1.0  0.12594748428323038  0.8667701900071583  0.04674151086702527  1.0000
  C   C1348     1.0  0.12166669331360032  0.8926014613144776  0.05285410784767741  1.0000
  C   C1349     1.0  0.09438205514297254  0.8932987089795601  0.043625200905640815  1.0000
  C   C1350     1.0  0.07130785102580958  0.8679102236969609  0.026909862949082042  1.0000
  C   C1351     1.0  0.07804147685489975  0.8434894563087209  0.019067649641857143  1.0000
  C   C1352     1.0  0.1039221694945864  0.8420566519134769  0.029953301838467228  1.0000
  C   C1353     1.0  0.006659507129587734  0.8328776960076613  0.014933287939305151  1.0000
  C   C1354     1.0  0.9808204814623291  0.8282693216109742  0.9990709701785037  1.0000
  C   C1355     1.0  0.9516255385010355  0.7992089524085481  0.9987194744194479  1.0000
  C   C1356     1.0  0.9485872061178535  0.7726713550362765  0.013660187446139949  1.0000
  C   C1357     1.0  0.9747966472915626  0.7769611209876719  0.029378906329766252  1.0000
  C   C1358     1.0  0.0029180477427535032  0.8069573654140568  0.030769886498224652  1.0000
  C   C1359     1.0  0.02251744561434444  0.8787686029041751  0.06710468895719912  1.0000
  C   C1360     1.0  0.003845276757129606  0.8871143525223613  0.08418066237365932  1.0000
  C   C1361     1.0  0.987392559774787  0.9012982600034978  0.07267474875832526  1.0000
  C   C1362     1.0  0.9907519479996104  0.9088586125368888  0.0441738772124598  1.0000
  C   C1363     1.0  0.010418351918790283  0.9020160219413649  0.027593565065781922  1.0000
  C   C1364     1.0  0.025207335086957397  0.8850065684718099  0.03801198509486681  1.0000
  H   H845      1.0  0.12035805078571005  0.9866685613720689  0.8643023523161599  1.0000
  H   H846      1.0  0.14387077786120178  0.9516075452005476  0.9393081180717353  1.0000
  H   H847      1.0  0.19791030090814993  0.9959475475603063  0.9375742152115153  1.0000
  H   H848      1.0  0.17213221975574108  0.03205270221586787  0.8648295959547435  1.0000
  H   H849      1.0  0.11431138972189091  0.898044125515157  0.9048658202179207  1.0000
  H   H850      1.0  0.10968305789006577  0.858444644748278  0.8708714651302197  1.0000
  H   H851      1.0  0.05892196810518102  0.8885038868688466  0.8148829058996536  1.0000
  H   H852      1.0  0.062168700993843445  0.9265761923770355  0.8490272896650003  1.0000
  H   H853      1.0  0.09885366059181373  0.9630915464653853  0.961370906752953  1.0000
  H   H854      1.0  0.08170883801066157  0.9356487939651384  0.005215716161508288  1.0000
  H   H855      1.0  0.03068965074516718  0.844986445297585  0.9597034451642618  1.0000
  H   H856      1.0  0.043823297344784164  0.8712420257952463  0.9175539598131032  1.0000
  H   H857      1.0  0.13829946297275872  0.9121970890009499  0.0671068322240227  1.0000
  H   H858      1.0  0.090398510382523  0.913086470707999  0.048666164474537865  1.0000
  H   H859      1.0  0.062233152013217476  0.8240560267512818  0.004647750453278032  1.0000
  H   H860      1.0  0.1078161444042443  0.8213737248765852  0.023688532913345828  1.0000
  H   H861      1.0  0.9825951964523743  0.8479678647029191  0.9872722863150779  1.0000
  H   H862      1.0  0.9312370708300313  0.7959599289616606  0.9865028535254377  1.0000
  H   H863      1.0  0.9734829871336913  0.7567548979477843  0.041925590314597194  1.0000
  H   H864      1.0  0.022428380887399325  0.8094708724425791  0.04465611224774957  1.0000
  H   H865      1.0  0.03390084284143876  0.8663318712032293  0.07637338431565743  1.0000
  H   H866      1.0  0.001994377317355627  0.8828938529961957  0.10682813424433063  1.0000
  H   H867      1.0  0.977259337883065  0.9193787326165305  0.034569898576308766  1.0000
  H   H868      1.0  0.010531569751991756  0.9066404350326933  0.005185710425979151  1.0000
  C   C1365     1.0  0.30612109549740735  0.9915516338208732  0.20697977800674353  1.0000
  C   C1366     1.0  0.3006414811903239  0.014020322312760403  0.19409081431019812  1.0000
  C   C1367     1.0  0.2719877614011605  0.004472546366079522  0.1799542549956872  1.0000
  C   C1368     1.0  0.24921885073430286  0.9719268235572167  0.176444869898871  1.0000
  C   C1369     1.0  0.2554377111797765  0.9500265680471248  0.190146774701574  1.0000
  C   C1370     1.0  0.2828890245790074  0.9591082118712998  0.20588906952025904  1.0000
  H   H869      1.0  0.31871201010413047  0.03898570973647009  0.19437479716431327  1.0000
  H   H870      1.0  0.2676856625860737  0.02326811057577216  0.17141205074390356  1.0000
  H   H871      1.0  0.23735777168643898  0.9248019069086122  0.1908276905714033  1.0000
  H   H872      1.0  0.28675075657996124  0.9401813790411885  0.21594270553598233  1.0000
  C   C1371     1.0  0.21397086791423908  0.9117375217781478  0.13257219802161002  1.0000
  C   C1372     1.0  0.1976208979833597  0.9258744206414613  0.14635790455711226  1.0000
  C   C1373     1.0  0.1636956558839962  0.9092707535962301  0.14444246699694085  1.0000
  C   C1374     1.0  0.1475918960287038  0.8819947616207647  0.12836946610738814  1.0000
  C   C1375     1.0  0.16421060313186775  0.8701324754942102  0.11269318390686726  1.0000
  C   C1376     1.0  0.1976223555248391  0.885105354658227  0.11502055735051737  1.0000
  C   C1377     1.0  0.21596848218333267  0.9616374606182237  0.15971710099473588  1.0000
  C   C1378     1.0  0.22116489292440872  0.9810975734830593  0.1307401335408732  1.0000
  C   C1379     1.0  0.19613715846012283  0.9842246980024203  0.1195657833031362  1.0000
  C   C1380     1.0  0.2009118794171389  0.0018218838099708368  0.09519833980659767  1.0000
  C   C1381     1.0  0.23082264299237962  0.017477075597566394  0.0819829565728316  1.0000
  C   C1382     1.0  0.25527465881120115  0.014025873858759308  0.0928186706524539  1.0000
  C   C1383     1.0  0.2504478488211392  0.9943281907581377  0.11573833740971105  1.0000
  C   C1384     1.0  0.1865562224961749  0.9476505200133402  0.20771427554716063  1.0000
  C   C1385     1.0  0.18482000788440237  0.9587953734036175  0.2347027200421702  1.0000
  C   C1386     1.0  0.19207339995301562  0.9907055530297372  0.23923358610707154  1.0000
  C   C1387     1.0  0.19270928587502234  0.007340758179429363  0.2147960577854042  1.0000
  C   C1388     1.0  0.19753612313040556  0.9974138941956184  0.18819554458545001  1.0000
  C   C1389     1.0  0.19649586291339566  0.968178546777463  0.1847090924436454  1.0000
  C   C1390     1.0  0.20106491194091433  0.0074739936646264216  0.27046955679291435  1.0000
  C   C1391     1.0  0.10192491356316523  0.9529171642738131  0.3018576994232264  1.0000
  C   C1392     1.0  0.1232081242873084  0.9412673637086564  0.3059299063878964  1.0000
  C   C1393     1.0  0.15504576913871163  0.9592880322563173  0.2973418362260897  1.0000
  C   C1394     1.0  0.16592241906886016  0.989319354841072  0.2843557825424392  1.0000
  C   C1395     1.0  0.14367079311057115  0.00021369194596498886  0.28023856697447547  1.0000
  C   C1396     1.0  0.11229502911364442  0.982366898125244  0.2892852962365135  1.0000
  C   C1397     1.0  0.21911997400508695  0.04659763540232409  0.27198270317031276  1.0000
  C   C1398     1.0  0.24324152225615783  0.06567759409212681  0.25266972582365915  1.0000
  C   C1399     1.0  0.2606430800907169  0.09835206159306767  0.2553938179563411  1.0000
  C   C1400     1.0  0.2550806078038386  0.11372310761994157  0.2783632085039037  1.0000
  C   C1401     1.0  0.23146526031228554  0.09538065226034714  0.2983448850994926  1.0000
  C   C1402     1.0  0.2144521969191  0.06228012846618802  0.29536788748163645  1.0000
  C   C1403     1.0  0.2299942926658423  0.0031369917385042356  0.3156088993628701  1.0000
  C   C1404     1.0  0.25770351258020247  0.007630750504320938  0.32899788720934053  1.0000
  C   C1405     1.0  0.28411334346444433  0.010987966360504364  0.31297268116995214  1.0000
  C   C1406     1.0  0.28103752681085264  0.006889363126484138  0.28385854463938476  1.0000
  C   C1407     1.0  0.25326772699303696  0.001813236265949758  0.27063458833832466  1.0000
  C   C1408     1.0  0.22776027885119043  0.0017208875339238539  0.28611111807089434  1.0000
  H   H873      1.0  0.24060034550819046  0.923577181272877  0.1332829053002861  1.0000
  H   H874      1.0  0.14933524983870142  0.9195926741550706  0.15373674357709435  1.0000
  H   H875      1.0  0.12192898563267342  0.8714075039771411  0.12507869422657006  1.0000
  H   H876      1.0  0.21161609947930332  0.8780609789909882  0.10147425371920128  1.0000
  H   H877      1.0  0.17229680716155546  0.9725184792684  0.12888320716498364  1.0000
  H   H878      1.0  0.1811929730773691  0.0037299389524587667  0.08639058479538105  1.0000
  H   H879      1.0  0.2783292452464988  0.02403403748430888  0.08182371184784476  1.0000
  H   H880      1.0  0.26992794450238267  0.9896993469119013  0.12201232238217351  1.0000
  H   H881      1.0  0.1835755543189547  0.9235384991783467  0.20539204594388694  1.0000
  H   H882      1.0  0.1830449724511245  0.9447586365885163  0.25286904963824564  1.0000
  H   H883      1.0  0.1944294495273863  0.031559852787216514  0.21563621838022032  1.0000
  H   H884      1.0  0.20608275659039635  0.014819091466232948  0.17076199791633281  1.0000
  H   H885      1.0  0.11619853849846665  0.9181191678989692  0.3158875240499265  1.0000
  H   H886      1.0  0.1713116945408621  0.9498495112494113  0.3010132522947633  1.0000
  H   H887      1.0  0.15067092239935478  0.022921750785037  0.27010734469974107  1.0000
  H   H888      1.0  0.09612734610268646  0.9925841384644863  0.28765427018382195  1.0000
  H   H889      1.0  0.24868642201998994  0.05435288582271025  0.23493633612593287  1.0000
  H   H890      1.0  0.27981200580251464  0.11252639252642976  0.23967081253906766  1.0000
  H   H891      1.0  0.2272856372498934  0.10550740996132253  0.318131524414142  1.0000
  H   H892      1.0  0.19937445281885788  0.04853266424744129  0.312841941893718  1.0000
  H   H893      1.0  0.2123500007030986  0.006214982440085226  0.328273463022994  1.0000
  H   H894      1.0  0.2599927070067897  0.011448958561474099  0.3515643435940831  1.0000
  H   H895      1.0  0.30157983556919554  0.010083856993149398  0.26938292051339446  1.0000
  H   H896      1.0  0.25342349396112934  0.00029633723656985467  0.2477209227281733  1.0000
  C   C1409     1.0  0.2517334305219761  0.10260143943990567  0.8758674200958229  1.0000
  C   C1410     1.0  0.28462347230864055  0.12352865433762977  0.8741399470360735  1.0000
  C   C1411     1.0  0.29646913154837756  0.155748987030654  0.8789837300572073  1.0000
  C   C1412     1.0  0.2764586425611321  0.16820743344608505  0.8868859548354906  1.0000
  C   C1413     1.0  0.24297016240133  0.14690487183640571  0.8885769923592406  1.0000
  C   C1414     1.0  0.23124914150540324  0.11440946923352628  0.8822157764270612  1.0000
  H   H897      1.0  0.30160058904646886  0.11542725274445918  0.8696390867067013  1.0000
  H   H898      1.0  0.3221477641697583  0.1708736167919896  0.8773462742040452  1.0000
  H   H899      1.0  0.2265165538409078  0.15487255427625277  0.8972165009248115  1.0000
  H   H900      1.0  0.20490159292147686  0.09881431328675037  0.8834374385164622  1.0000
  C   C1415     1.0  0.24626618672109768  0.211372925994206  0.8686510407010628  1.0000
  C   C1416     1.0  0.2669040510205424  0.2203025801357555  0.8917683166594477  1.0000
  C   C1417     1.0  0.2684401894075687  0.24492782861735646  0.9096002966310556  1.0000
  C   C1418     1.0  0.2501596055050497  0.2592751129858725  0.9034941294508739  1.0000
  C   C1419     1.0  0.22886893687116303  0.24861933162473843  0.8806683377804866  1.0000
  C   C1420     1.0  0.22687571553093888  0.22462527134831975  0.8634471888535792  1.0000
  C   C1421     1.0  0.2911155723127339  0.20570220852768836  0.8950796639017715  1.0000
  C   C1422     1.0  0.32055179167590103  0.2307918892199781  0.8748922336911257  1.0000
  C   C1423     1.0  0.34136119631616146  0.26182840216414566  0.8851349058406826  1.0000
  C   C1424     1.0  0.3645408882199395  0.2853820504852801  0.868160232598479  1.0000
  C   C1425     1.0  0.3673823710982452  0.27818278040868133  0.8400662910759026  1.0000
  C   C1426     1.0  0.3483730350607449  0.2475742296602505  0.8292899454872915  1.0000
  C   C1427     1.0  0.3242109515909328  0.22444354951888845  0.8463846416716118  1.0000
  C   C1428     1.0  0.2792199811229125  0.19608770551515373  0.9490642686523553  1.0000
  C   C1429     1.0  0.28702937077294866  0.19405438343920045  0.9769481700262277  1.0000
  C   C1430     1.0  0.31758107022075466  0.19796119495550848  0.9830757698746443  1.0000
  C   C1431     1.0  0.33976783017793044  0.20567530766498676  0.9610301273280147  1.0000
  C   C1432     1.0  0.33136196309373545  0.2077818213604967  0.93363917732355  1.0000
  C   C1433     1.0  0.30105789658284643  0.2039862833957124  0.9270593481753725  1.0000
  C   C1434     1.0  0.32602695695778267  0.192173733745608  0.014564646045661434  1.0000
  C   C1435     1.0  0.3413214208002313  0.28580692916619466  0.05018359738558331  1.0000
  C   C1436     1.0  0.3118714900077274  0.2576766577422005  0.053677122307905334  1.0000
  C   C1437     1.0  0.3075002507860124  0.22893419662877226  0.042941498788940935  1.0000
  C   C1438     1.0  0.33272603705746034  0.22619774509972126  0.029910436501996873  1.0000
  C   C1439     1.0  0.3621752129382048  0.25459949169664564  0.027329943246490185  1.0000
  C   C1440     1.0  0.3666834242808615  0.28382822443437533  0.038003412027572736  1.0000
  C   C1441     1.0  0.35571785882797535  0.1851407598358445  0.01736160925034258  1.0000
  C   C1442     1.0  0.35818498225921774  0.16390763062462738  0.9982801047206282  1.0000
  C   C1443     1.0  0.38362476678306495  0.15790154965977132  0.9993088727959133  1.0000
  C   C1444     1.0  0.40637819144028814  0.1717279050698  0.02048220574537396  1.0000
  C   C1445     1.0  0.40431962125629395  0.1920725896015714  0.04032885653108176  1.0000
  C   C1446     1.0  0.3789980389035637  0.19867963333712954  0.0384813605292158  1.0000
  C   C1447     1.0  0.2919372438916903  0.1549844130563001  0.0564740855125867  1.0000
  C   C1448     1.0  0.2692663479939379  0.1258284129062951  0.06793491417813168  1.0000
  C   C1449     1.0  0.2519753444144371  0.0993639101832888  0.05047079513993369  1.0000
  C   C1450     1.0  0.25568689488612706  0.10237869973107495  0.021513117087482492  1.0000
  C   C1451     1.0  0.2793440358261286  0.13115462130565805  0.010460290078638579  1.0000
  C   C1452     1.0  0.2977284319801565  0.15880139595032086  0.02720563377072671  1.0000
  H   H901      1.0  0.24701336732732848  0.19510664171825093  0.8521821784292077  1.0000
  H   H902      1.0  0.2852783967391179  0.2548441788202489  0.9264163681283193  1.0000
  H   H903      1.0  0.25329742804786554  0.2784272008106984  0.9172624755251058  1.0000
  H   H904      1.0  0.21325360021949302  0.2188044866945949  0.8435533861977543  1.0000
  H   H905      1.0  0.3386886054310825  0.26845902896257695  0.9069254996353143  1.0000
  H   H906      1.0  0.3790201665299302  0.3094253666945201  0.8764568184722884  1.0000
  H   H907      1.0  0.3503742935567349  0.24231617837933184  0.8068413687778421  1.0000
  H   H908      1.0  0.3065510613896641  0.20223615052950938  0.8362512761300539  1.0000
  H   H909      1.0  0.25450519287321  0.19198808087193944  0.9451913855022717  1.0000
  H   H910      1.0  0.26866993298719916  0.18822515429321698  0.9934084592307887  1.0000
  H   H911      1.0  0.36407711082547894  0.2108338679813019  0.9643693370390443  1.0000
  H   H912      1.0  0.34967755626894353  0.2130636998419313  0.9170481488427547  1.0000
  H   H913      1.0  0.2912764218826004  0.2588382375243287  0.06318679720382181  1.0000
  H   H914      1.0  0.28401931582244794  0.20796556962199167  0.04385453045575649  1.0000
  H   H915      1.0  0.38210090371408256  0.25467680528587766  0.016354273843292688  1.0000
  H   H916      1.0  0.39054966641515143  0.3058218867805539  0.03550436291135961  1.0000
  H   H917      1.0  0.34011910765085135  0.1515957571388542  0.9824370763612381  1.0000
  H   H918      1.0  0.385103683575973  0.14243475803257014  0.9832172254849959  1.0000
  H   H919      1.0  0.4233860226255806  0.20409307584956304  0.05657696232011533  1.0000
  H   H920      1.0  0.37815146383412396  0.21422636861688854  0.05567036045377027  1.0000
  H   H921      1.0  0.30545593978239244  0.17447180609678303  0.07139071760436008  1.0000
  H   H922      1.0  0.2659375625679967  0.12392411275768686  0.09103397236851667  1.0000
  H   H923      1.0  0.24077545577331783  0.08083482326056238  0.007894799690896459  1.0000
  H   H924      1.0  0.2836666281330407  0.13291639733991806  0.9871415470388438  1.0000
  C   C1453     1.0  0.1482104998601154  0.2294446881589078  0.858232620671978  1.0000
  C   C1454     1.0  0.12366127038374583  0.23747480864006562  0.8579689988526863  1.0000
  C   C1455     1.0  0.09277413917182688  0.2149676328866246  0.8647009999453329  1.0000
  C   C1456     1.0  0.08427574432154022  0.18276491602899705  0.8702027658812845  1.0000
  C   C1457     1.0  0.10931913942023841  0.17504426930311767  0.8700977458069326  1.0000
  C   C1458     1.0  0.1406610220014298  0.1982100674691944  0.8647481518154502  1.0000
  H   H925      1.0  0.12819335896193776  0.2602032318059875  0.8501503614805198  1.0000
  H   H926      1.0  0.07338231211885936  0.22138606862962595  0.8659848167726157  1.0000
  H   H927      1.0  0.10450269332099273  0.15106438320219825  0.8752951678539456  1.0000
  H   H928      1.0  0.1594020528285279  0.19148181877639614  0.8644995328639229  1.0000
  C   C1459     1.0  0.04336546634111076  0.10625993884523503  0.8553113479915332  1.0000
  C   C1460     1.0  0.037943621654404916  0.12023518573354512  0.8796652889070836  1.0000
  C   C1461     1.0  0.020150450754475375  0.09890176956961057  0.9019616936720639  1.0000
  C   C1462     1.0  0.00928674954495399  0.06605609337233331  0.900249223480079  1.0000
  C   C1463     1.0  0.0155723072604421  0.05323018560534609  0.8762317754558198  1.0000
  C   C1464     1.0  0.0321815189700475  0.07370364047770361  0.8536374566023714  1.0000
  C   C1465     1.0  0.047111793945232086  0.15745140235816957  0.880657621446369  1.0000
  C   C1466     1.0  0.019447183160330634  0.15728159289120874  0.8611196010832468  1.0000
  C   C1467     1.0  0.9878545971260497  0.14533931271890788  0.871291545427628  1.0000
  C   C1468     1.0  0.9643022493032295  0.14753600596651287  0.8568630731717549  1.0000
  C   C1469     1.0  0.9707455278697638  0.16078012666638195  0.8298214756595221  1.0000
  C   C1470     1.0  0.0019016101885269564  0.1717305944003607  0.8178106083805691  1.0000
  C   C1471     1.0  0.025197950047397822  0.16924396314333506  0.8332614189112567  1.0000
  C   C1472     1.0  0.06547376494618411  0.16553788070877343  0.9331590855550834  1.0000
  C   C1473     1.0  0.06808078101349617  0.17660377221231072  0.9607579324414289  1.0000
  C   C1474     1.0  0.05402109932302538  0.19542280307578228  0.968998793377827  1.0000
  C   C1475     1.0  0.03660159332208689  0.20091107699168215  0.9484427212735373  1.0000
  C   C1476     1.0  0.03461502936936724  0.190341887039125  0.920777433115663  1.0000
  C   C1477     1.0  0.048290242436011  0.1711288958983956  0.912527999111971  1.0000
  C   C1478     1.0  0.05824439290840084  0.20831241238068254  0.0011735149323675031  1.0000
  C   C1479     1.0  0.9814016616938355  0.12439326079880396  0.04520478855456833  1.0000
  C   C1480     1.0  0.010816372747605817  0.12649992692510206  0.041492650416247834  1.0000
  C   C1481     1.0  0.034467859729099715  0.1510206061460054  0.024959490139687457  1.0000
  C   C1482     1.0  0.02920861718269917  0.17591125713888062  0.014573219112955282  1.0000
  C   C1483     1.0  0.9979033686983482  0.17109427861336526  0.015917047411296403  1.0000
  C   C1484     1.0  0.9738380789661176  0.14549762538412808  0.031189966795632795  1.0000
  C   C1485     1.0  0.05482843528363416  0.23954765146095477  0.00787122375583782  1.0000
  C   C1486     1.0  0.061039261091942104  0.26373801638209327  0.9876152090068397  1.0000
  C   C1487     1.0  0.048897109414849274  0.2841283314693104  0.991957467591272  1.0000
  C   C1488     1.0  0.033495320782483136  0.28421688266261474  0.017106560498344914  1.0000
  C   C1489     1.0  0.03168976427859541  0.26390555527721377  0.03873640928121347  1.0000
  C   C1490     1.0  0.04280120230101792  0.2421591474330679  0.03442201316548665  1.0000
  C   C1491     1.0  0.10238502561520205  0.21184177039353996  0.03766048933581123  1.0000
  C   C1492     1.0  0.13249852976644616  0.2142349449227425  0.04198131525200832  1.0000
  C   C1493     1.0  0.15662081510858175  0.2284874895154324  0.021845323445126796  1.0000
  C   C1494     1.0  0.15042908405660413  0.24129748461751935  0.9982522422519226  1.0000
  C   C1495     1.0  0.12079581175389839  0.23906893517876465  0.9933763102284361  1.0000
  C   C1496     1.0  0.09500216789257283  0.2212750953901043  0.012187763138388208  1.0000
  H   H929      1.0  0.056643947465555684  0.12157889468449362  0.8377237004378056  1.0000
  H   H930      1.0  0.013485897141264736  0.10732276698657331  0.9210217655335432  1.0000
  H   H931      1.0  0.9955705750373856  0.05104594261240347  0.9185720115542707  1.0000
  H   H932      1.0  0.03742123885107447  0.06417607801017233  0.833552903199254  1.0000
  H   H933      1.0  0.9817782398175413  0.13554089713346412  0.892949256679202  1.0000
  H   H934      1.0  0.9406292722810683  0.13939608201399314  0.8664927710097878  1.0000
  H   H935      1.0  0.00727327515726086  0.18155758762739746  0.7966694244334609  1.0000
  H   H936      1.0  0.04865488549705567  0.176816644061058  0.8238181852868691  1.0000
  H   H937      1.0  0.07657481708254517  0.15030528299702473  0.9284781908125365  1.0000
  H   H938      1.0  0.08037362503305562  0.16944554466817244  0.9761272988328231  1.0000
  H   H939      1.0  0.023862462630944468  0.2141700331781277  0.9537151576593732  1.0000
  H   H940      1.0  0.022248312206846234  0.19828224133609443  0.9063661069943781  1.0000
  H   H941      1.0  0.016771261667627747  0.10937870399178322  0.051585293888159134  1.0000
  H   H942      1.0  0.058070599824716976  0.1533289830580791  0.023225587279467552  1.0000
  H   H943      1.0  0.990144675269453  0.18691464953104928  0.00573224346597434  1.0000
  H   H944      1.0  0.9496063057251307  0.14308649648709298  0.033305371150437635  1.0000
  H   H945      1.0  0.07226720207247607  0.26439837549074846  0.9673934865270176  1.0000
  H   H946      1.0  0.05199458475635919  0.30062448744251735  0.9742969489655451  1.0000
  H   H947      1.0  0.02075290504654828  0.2635766266421998  0.05931820058738535  1.0000
  H   H948      1.0  0.041287728472279545  0.22672270250174914  0.05210610772627233  1.0000
  H   H949      1.0  0.08334200908279756  0.19997184704420765  0.05340492742131975  1.0000
  H   H950      1.0  0.13554640900868975  0.2026040425709813  0.06052700307584513  1.0000
  H   H951      1.0  0.16954870727547666  0.2519882790484604  0.9830500506727622  1.0000
  H   H952      1.0  0.11750941445607149  0.24701156086870293  0.9728716765279106  1.0000
  C   C1497     1.0  0.19200216283127944  0.3361273420956588  0.1903272377681136  1.0000
  C   C1498     1.0  0.17344172134126237  0.3041053347819418  0.1818881246505408  1.0000
  C   C1499     1.0  0.18875840380256528  0.2888530348324977  0.169450104293662  1.0000
  C   C1500     1.0  0.22234785086034364  0.3039737718759046  0.16703571421697735  1.0000
  C   C1501     1.0  0.24031251814619137  0.33543557106154936  0.17651088251703517  1.0000
  C   C1502     1.0  0.2253600578872962  0.3514560414181216  0.1876241496503021  1.0000
  H   H953      1.0  0.14706779306424755  0.29103248718587793  0.18291389215227294  1.0000
  H   H954      1.0  0.17428089666543767  0.2635668272828748  0.16366842771055992  1.0000
  H   H955      1.0  0.26703411377824926  0.34718749991356845  0.17557706116203164  1.0000
  H   H956      1.0  0.23933402338438323  0.37591714315029934  0.19516223339527103  1.0000
  C   C1503     1.0  0.28547665911358067  0.3288788737639844  0.1271698796662693  1.0000
  C   C1504     1.0  0.276094653108651  0.3032963503947536  0.14617551255043149  1.0000
  C   C1505     1.0  0.2969320981698402  0.29032630074036625  0.149003767450736  1.0000
  C   C1506     1.0  0.32348672181967647  0.3007027791624328  0.13154085802613674  1.0000
  C   C1507     1.0  0.3298553541434841  0.3235047365323978  0.1103012981318295  1.0000
  C   C1508     1.0  0.31134577674227426  0.3386296592839792  0.10922216328619191  1.0000
  C   C1509     1.0  0.2388791839883543  0.28311695225789524  0.15720754987108737  1.0000
  C   C1510     1.0  0.22412744461121767  0.26300611072499264  0.12812856291642558  1.0000
  C   C1511     1.0  0.22675093302753313  0.23542319155366273  0.12292106751534199  1.0000
  C   C1512     1.0  0.21724934474573865  0.21932628619789094  0.09710927650643968  1.0000
  C   C1513     1.0  0.20710571548184628  0.2313175149721992  0.07559044894502902  1.0000
  C   C1514     1.0  0.20344825046153503  0.2580145517384438  0.08067599246385486  1.0000
  C   C1515     1.0  0.21205558165486557  0.273912775164496  0.10625052383539454  1.0000
  C   C1516     1.0  0.2539780361227546  0.27830944659100204  0.20953090850676814  1.0000
  C   C1517     1.0  0.2445244201634134  0.2663076475316201  0.23689742526944504  1.0000
  C   C1518     1.0  0.21440990630456078  0.2392613637924629  0.2417283486896378  1.0000
  C   C1519     1.0  0.19748135051273127  0.22089171042750874  0.21816955976560978  1.0000
  C   C1520     1.0  0.2059912743776923  0.2333528489398948  0.1913690797710221  1.0000
  C   C1521     1.0  0.23387677536867174  0.26307112417196227  0.18605656429558648  1.0000
  C   C1522     1.0  0.19811236918267938  0.2314128631025875  0.2732000787260668  1.0000
  C   C1523     1.0  0.25279391398618256  0.18517289766449715  0.300966100424646  1.0000
  C   C1524     1.0  0.2645407699598127  0.217471887756778  0.30672934491306586  1.0000
  C   C1525     1.0  0.24687121981266305  0.23245362965413907  0.29987517761147914  1.0000
  C   C1526     1.0  0.2170066032213202  0.21538943498830262  0.2864004590920683  1.0000
  C   C1527     1.0  0.20591793593439445  0.1827121576121117  0.28105729490105646  1.0000
  C   C1528     1.0  0.223574874409465  0.16781417862070125  0.28790288913534917  1.0000
  C   C1529     1.0  0.15925096383282028  0.2112430037863897  0.2768157698573291  1.0000
  C   C1530     1.0  0.13904774084535895  0.2163035535775901  0.2587287411337235  1.0000
  C   C1531     1.0  0.10611666425903124  0.20198312741755173  0.2637182662988561  1.0000
  C   C1532     1.0  0.09241563103246402  0.18268626247458414  0.28751710110711726  1.0000
  C   C1533     1.0  0.11209849557636498  0.17827829650466495  0.30598991785895474  1.0000
  C   C1534     1.0  0.1451039040000774  0.1921697106343901  0.3008117852133532  1.0000
  C   C1535     1.0  0.20615661160363857  0.2677635443007292  0.31782718052520353  1.0000
  C   C1536     1.0  0.20583424984337892  0.29395347977005526  0.33066320553120826  1.0000
  C   C1537     1.0  0.19991861437680675  0.3146654710175818  0.31443438914358635  1.0000
  C   C1538     1.0  0.19869021515443724  0.3117987574624937  0.2854938572257233  1.0000
  C   C1539     1.0  0.19971911323802688  0.2863369987874694  0.27252066314301393  1.0000
  C   C1540     1.0  0.20318404390419992  0.26332626483699606  0.28836583476922745  1.0000
  H   H957      1.0  0.2692289105898515  0.3379494694590353  0.12311781940974025  1.0000
  H   H958      1.0  0.29056613397705366  0.27059480506623534  0.1634613881354088  1.0000
  H   H959      1.0  0.33752103900066266  0.28803667952980316  0.13216090511817832  1.0000
  H   H960      1.0  0.31557982120027683  0.35523350532146514  0.09182569513312146  1.0000
  H   H961      1.0  0.23619817709601462  0.2266033069539679  0.1390043560856475  1.0000
  H   H962      1.0  0.21849274457061219  0.19718540807598947  0.09487041998260057  1.0000
  H   H963      1.0  0.19587026267695937  0.26847034879654463  0.06393908385887404  1.0000
  H   H964      1.0  0.21169321105027555  0.29671486989654217  0.10907234893522855  1.0000
  H   H965      1.0  0.2752134907957747  0.3025460845036044  0.2074450812341277  1.0000
  H   H966      1.0  0.2594989095432622  0.27953416406160736  0.25545168616057584  1.0000
  H   H967      1.0  0.1749293793495344  0.19813020848007284  0.22140160613546372  1.0000
  H   H968      1.0  0.18928357633858983  0.2196548017133158  0.17417043514576164  1.0000
  H   H969      1.0  0.2873736458156033  0.23159288432850256  0.3184637307717862  1.0000
  H   H970      1.0  0.25807717665569874  0.25817123438567396  0.30420457659497047  1.0000
  H   H971      1.0  0.18318283507307365  0.1691240622324635  0.26988015841644897  1.0000
  H   H972      1.0  0.21372151322913913  0.14289262640510964  0.28130377058576017  1.0000
  H   H973      1.0  0.14984394774887616  0.23354309548436142  0.24175406789151993  1.0000
  H   H974      1.0  0.09193283349819531  0.20731041160189534  0.24952555339356922  1.0000
  H   H975      1.0  0.10287874368559909  0.16361333758872476  0.3258087061759568  1.0000
  H   H976      1.0  0.1603341226930088  0.18801956185526567  0.31576321457416284  1.0000
  H   H977      1.0  0.20999066363914234  0.25137702141721063  0.3309482600187351  1.0000
  H   H978      1.0  0.2049222824614415  0.2956314583725563  0.3538276333597103  1.0000
  H   H979      1.0  0.19294186321136664  0.32720252788745824  0.27264925915242455  1.0000
  H   H980      1.0  0.19479372371950965  0.28378349957994287  0.2497505964100378  1.0000
  C   C1541     1.0  0.8168939876456284  0.9365585324674551  0.1890678541826188  1.0000
  C   C1542     1.0  0.8368582195087545  0.9243070127984984  0.18170873321741296  1.0000
  C   C1543     1.0  0.8687376981478523  0.9447610683998948  0.17539402617530384  1.0000
  C   C1544     1.0  0.8816937720749554  0.9782624897521717  0.17541995970386828  1.0000
  C   C1545     1.0  0.8611447128864825  0.9902678880985382  0.18251631615651176  1.0000
  C   C1546     1.0  0.8286565467269024  0.969533640226151  0.18777139208107727  1.0000
  H   H981      1.0  0.8279349144997785  0.8983619178005761  0.18267256030794565  1.0000
  H   H982      1.0  0.8829187787189717  0.9327516869619308  0.17012609064979722  1.0000
  H   H983      1.0  0.8706215004964685  0.016542838340031896  0.1837343346923128  1.0000
  H   H984      1.0  0.8125331871835513  0.9796819030667191  0.19125291470918782  1.0000
  C   C1547     1.0  0.9057429523716919  0.03133733339201794  0.13148084655507844  1.0000
  C   C1548     1.0  0.9273595366915476  0.03370907845303561  0.15282821277060826  1.0000
  C   C1549     1.0  0.9552000809875578  0.06394838828172622  0.1566061492004103  1.0000
  C   C1550     1.0  0.9611934414991755  0.08930051126668566  0.13915802831689322  1.0000
  C   C1551     1.0  0.9404445346605881  0.08640159281996701  0.11776351023124619  1.0000
  C   C1552     1.0  0.912126742185966  0.05773058374988227  0.11465427305037944  1.0000
  C   C1553     1.0  0.9199956740464428  0.0013199754015793541  0.16984017885554092  1.0000
  C   C1554     1.0  0.9359502640381655  0.982724928923933  0.1517012830748064  1.0000
  C   C1555     1.0  0.9410023121336968  0.9858636578530254  0.12253549381379243  1.0000
  C   C1556     1.0  0.956404149751551  0.9721459781724353  0.10767386733288789  1.0000
  C   C1557     1.0  0.9683587030445434  0.9553956035805033  0.12248855627035755  1.0000
  C   C1558     1.0  0.9618758477263938  0.949719068932093  0.15093527951208371  1.0000
  C   C1559     1.0  0.9444058884014076  0.9613291870630566  0.16519464801558179  1.0000
  C   C1560     1.0  0.9214580185620564  0.009511043726781576  0.2261103633467164  1.0000
  C   C1561     1.0  0.934667979163758  0.009530748528013833  0.2517652672241377  1.0000
  C   C1562     1.0  0.9655086631705464  0.012799663724808452  0.2532827001351832  1.0000
  C   C1563     1.0  0.9842161381181612  0.02183849986130104  0.22902734949351428  1.0000
  C   C1564     1.0  0.9713243626945437  0.022060759661038265  0.20308396190164843  1.0000
  C   C1565     1.0  0.9382547454595827  0.012580841994762615  0.20052254372087097  1.0000
  C   C1566     1.0  0.9777652676111228  0.006322688986297731  0.2828319198309232  1.0000
  C   C1567     1.0  0.02365557629503049  0.10875782699266688  0.3076273737121168  1.0000
  C   C1568     1.0  0.9916304710534644  0.08680237746153963  0.3162733120781584  1.0000
  C   C1569     1.0  0.9772332046893503  0.05466022332700482  0.3089604856763404  1.0000
  C   C1570     1.0  0.9948928177444375  0.04226248166295088  0.2952435780058728  1.0000
  C   C1571     1.0  0.027175281841650013  0.0638582380492958  0.2874485165687649  1.0000
  C   C1572     1.0  0.04116661761977295  0.09641819945553472  0.29331249459788983  1.0000
  C   C1573     1.0  0.0006782411306622769  0.990438587274134  0.28190602856316666  1.0000
  C   C1574     1.0  0.997352261191515  0.9678586707634074  0.26163715421322736  1.0000
  C   C1575     1.0  0.011339506483784413  0.9487402743901732  0.2655893382357808  1.0000
  C   C1576     1.0  0.028507291462363724  0.9514496802093714  0.2900590155598008  1.0000
  C   C1577     1.0  0.032936735652676345  0.9747346656451129  0.3097920732038625  1.0000
  C   C1578     1.0  0.019681068110874566  0.9941268589193003  0.30563413556625196  1.0000
  C   C1579     1.0  0.9481967019676654  0.9821242359626826  0.3311883059029683  1.0000
  C   C1580     1.0  0.9239860972795124  0.9573429337712364  0.34701633139459376  1.0000
  C   C1581     1.0  0.9006453121132588  0.9295016876884076  0.33346874180318353  1.0000
  C   C1582     1.0  0.9008340363695999  0.9278192876469885  0.30424529866461714  1.0000
  C   C1583     1.0  0.9248727390093603  0.9519231602111657  0.288472998110403  1.0000
  C   C1584     1.0  0.9493862982660447  0.9798091807894203  0.30158336126981705  1.0000
  H   H985      1.0  0.8839429078506561  0.008164809217275026  0.1267047907655675  1.0000
  H   H986      1.0  0.9725329379432375  0.06879523052035985  0.17338878573522737  1.0000
  H   H987      1.0  0.984812163822624  0.11122872483493484  0.14096030138878327  1.0000
  H   H988      1.0  0.8972217021444142  0.055245020562864955  0.09651130506268024  1.0000
  H   H989      1.0  0.9332270301835819  0.9998215568108318  0.110984785921847  1.0000
  H   H990      1.0  0.958598541126936  0.9744720745221306  0.08501825104828724  1.0000
  H   H991      1.0  0.967878869654629  0.9330471200591405  0.16210191398925608  1.0000
  H   H992      1.0  0.9381287927228156  0.9542958024260699  0.18769444880211325  1.0000
  H   H993      1.0  0.8961016108845435  0.004063060395470108  0.22674691359329902  1.0000
  H   H994      1.0  0.9194201397592946  0.004712587379939848  0.2704738433265613  1.0000
  H   H995      1.0  0.009065525479115955  0.026276592070881843  0.23008183677068145  1.0000
  H   H996      1.0  0.9863678872965408  0.026293978806205986  0.18371933182454822  1.0000
  H   H997      1.0  0.9764728554357552  0.0952040874874465  0.32747616776464805  1.0000
  H   H998      1.0  0.9519695340386853  0.03919227806538306  0.31372925435865134  1.0000
  H   H999      1.0  0.04025594719885261  0.054805876517862284  0.27407453159005907  1.0000
  H   H1000     1.0  0.0653147129590124  0.1123405675310235  0.2852945334111368  1.0000
  H   H1001     1.0  0.9813874489779073  0.9627359144862225  0.2436101369606801  1.0000
  H   H1002     1.0  0.006446572508656887  0.9289498140699392  0.25116515251355476  1.0000
  H   H1003     1.0  0.044949519138860375  0.9770126040213023  0.3298809131406269  1.0000
  H   H1004     1.0  0.020763360902033238  0.00966252127994438  0.3224673531981039  1.0000
  H   H1005     1.0  0.9660076513139022  0.003103265568237923  0.34281338515368953  1.0000
  H   H1006     1.0  0.9233477419238975  0.9582364054214924  0.3701678996221548  1.0000
  H   H1007     1.0  0.8844781588894289  0.9056531296135273  0.2935546837489465  1.0000
  H   H1008     1.0  0.9242173066238759  0.9477377632043021  0.26576079958166166  1.0000
  C   C1585     1.0  0.05622654145073179  0.17164844150988898  0.2938976064407082  1.0000
  C   C1586     1.0  0.0376477801136982  0.1447495847878716  0.31654979349839124  1.0000
  H   H1009     1.0  0.04222139263873389  0.16479518917398722  0.2743810187458211  1.0000
  H   H1010     1.0  0.0554430843902106  0.1939093939411639  0.30135831825334847  1.0000
  H   H1011     1.0  0.017130332136392337  0.1482099541105091  0.3249085341100824  1.0000
  H   H1012     1.0  0.051882444784076075  0.1491090576949239  0.3366857853052729  1.0000
  C   C1587     1.0  0.9562659681563864  0.0976830483885332  0.06504715280662898  1.0000
  C   C1588     1.0  0.95137155401196  0.11144142610198064  0.09360589255672934  1.0000
  H   H1013     1.0  0.9326452617670842  0.08382636684801749  0.053878589389315446  1.0000
  H   H1014     1.0  0.9641410158031003  0.07948877283103373  0.06909527883638028  1.0000
  H   H1015     1.0  0.932780051816142  0.1189775612966296  0.09094374083524687  1.0000
  H   H1016     1.0  0.9747572600366751  0.13374801078592438  0.09919853300599776  1.0000
  C   C1589     1.0  0.18851302936244219  0.22736937771014787  0.02163099676277569  1.0000
  C   C1590     1.0  0.1988547277506685  0.2134463299332023  0.046623631191732295  1.0000
  H   H1017     1.0  0.1868984516199178  0.2131102106354544  0.0024659048269441985  1.0000
  H   H1018     1.0  0.2082139308021723  0.25275788563214174  0.017822411617397504  1.0000
  H   H1019     1.0  0.22057488523563187  0.21209597745558303  0.039417968131089776  1.0000
  H   H1020     1.0  0.17968838595904058  0.1875396750876741  0.05039792406793442  1.0000
  C   C1591     1.0  0.3446982742654886  0.3192672579333698  0.058019380892337935  1.0000
  C   C1592     1.0  0.357416926894291  0.332149450742597  0.08815513637117729  1.0000
  H   H1021     1.0  0.36092241110948314  0.33741916208054756  0.04171126363224609  1.0000
  H   H1022     1.0  0.3212669245750208  0.3187281052255578  0.054150784275901254  1.0000
  H   H1023     1.0  0.37419430947710053  0.3242167001087875  0.09569493472960507  1.0000
  H   H1024     1.0  0.3712510833245208  0.3590160066201776  0.08750636950370064  1.0000
  C   C1593     1.0  0.20835091929765248  0.2652496112610368  0.8755780790746489  1.0000
  C   C1594     1.0  0.1836911772001073  0.25624728337150576  0.8510483902795707  1.0000
  H   H1025     1.0  0.19647226649046975  0.2656272094943345  0.896089142575645  1.0000
  H   H1026     1.0  0.22683392254961193  0.29083584908249616  0.871703052657742  1.0000
  H   H1027     1.0  0.19280351008127997  0.24957071994705754  0.8308738196698658  1.0000
  H   H1028     1.0  0.1822917136336305  0.27862904170230546  0.8445178562683341  1.0000
  C   C1595     1.0  0.06754573871492914  0.9328092376916906  0.31477088203487746  1.0000
  C   C1596     1.0  0.03875686190305478  0.9256491468395387  0.2953014462101076  1.0000
  H   H1029     1.0  0.06417025952489867  0.9095345515499946  0.3223409004555168  1.0000
  H   H1030     1.0  0.06674274003270465  0.9446710124370314  0.33493259304364126  1.0000
  H   H1031     1.0  0.017879052182208536  0.9035523550401292  0.3044146167436745  1.0000
  H   H1032     1.0  0.04262434941955678  0.9170052811673011  0.27433172360888036  1.0000
  C   C1597     1.0  0.23750582642323284  0.04009190267516605  0.057046337754464105  1.0000
  C   C1598     1.0  0.2294947512117782  0.06702951777946908  0.06512002387862825  1.0000
  H   H1033     1.0  0.26304345248375355  0.05001422618798368  0.04965849701382319  1.0000
  H   H1034     1.0  0.22362738667523735  0.025763557269371518  0.03797126302522025  1.0000
  H   H1035     1.0  0.23099235363369353  0.07152129032332977  0.08850663213023302  1.0000
  H   H1036     1.0  0.2045037763108122  0.05933197269935886  0.05859377640103869  1.0000
  C   C1599     1.0  0.27932412769230824  0.15076553252325414  0.2818674497603435  1.0000
  C   C1600     1.0  0.27539459595171806  0.17063843825118935  0.30686437072294703  1.0000
  H   H1037     1.0  0.30320007609224575  0.15181466049379563  0.2848680233132582  1.0000
  H   H1038     1.0  0.28197757714660876  0.16387756189965505  0.2614206842640528  1.0000
  H   H1039     1.0  0.2999372632338706  0.1909331722064054  0.311628852871611  1.0000
  H   H1040     1.0  0.26923146433838535  0.15719923283065726  0.32714610467382743  1.0000
  C   C1601     1.0  0.9671076409946028  0.9100880221965418  0.09215082871024802  1.0000
  C   C1602     1.0  0.9884935764321641  0.9436194978187953  0.10563797817723522  1.0000
  H   H1041     1.0  0.9469462469212641  0.909276594544613  0.07967637281736954  1.0000
  H   H1042     1.0  0.9556471954420201  0.8920627425611602  0.10933982863480264  1.0000
  H   H1043     1.0  0.0026422782651488587  0.9625529865058584  0.08995998136325553  1.0000
  H   H1044     1.0  0.006904410283264879  0.9426762254861687  0.11928351506247988  1.0000
  C   C1603     1.0  0.017537155246175433  0.0008694562441335929  0.85821547453739  1.0000
  C   C1604     1.0  0.9979699130360278  0.01573104445237883  0.8723010241015012  1.0000
  H   H1045     1.0  0.03858645901112462  0.0194146573691103  0.8457330885572646  1.0000
  H   H1046     1.0  0.0016895895743131958  0.9832157115336476  0.8420723888227085  1.0000
  H   H1047     1.0  0.9869691804680136  0.003590593567497802  0.8926256233888519  1.0000
  H   H1048     1.0  0.9765588306723184  0.00850878591479498  0.8585669702964457  1.0000
  C   C1605     1.0  0.15464662561967343  0.8629778116528454  0.05875666467962559  1.0000
  C   C1606     1.0  0.14791502523996822  0.8464212501907005  0.08869738287752546  1.0000
  H   H1049     1.0  0.16113198872579387  0.8490017240963414  0.04358662210281783  1.0000
  H   H1050     1.0  0.17676397989934367  0.8866701695860573  0.05968898574785264  1.0000
  H   H1051     1.0  0.15756950616184304  0.8292030234967848  0.0882991639017172  1.0000
  H   H1052     1.0  0.12181414150286801  0.8305843677911386  0.09276273138836028  1.0000
  C   C1607     1.0  0.2224710653750631  0.0484472060952601  0.902289613496061  1.0000
  C   C1608     1.0  0.23938440916326761  0.06624043532744994  0.8738313166134879  1.0000
  H   H1053     1.0  0.21949893914469226  0.06448278857594003  0.9174489397387512  1.0000
  H   H1054     1.0  0.23912821272759663  0.041800039389018995  0.9131859820267887  1.0000
  H   H1055     1.0  0.25975377674983996  0.06208316693716576  0.8686146051650632  1.0000
  H   H1056     1.0  0.22315845077788854  0.05737524008413053  0.855084161708241  1.0000
  C   C1609     1.0  0.11043910307216342  0.8563692285457265  0.799948622673432  1.0000
  C   C1610     1.0  0.07916444029976531  0.8432987238428256  0.8187665053838546  1.0000
  H   H1057     1.0  0.10953810022636473  0.8374795028947244  0.7854258466773245  1.0000
  H   H1058     1.0  0.1304985900664121  0.8613058722029344  0.8143878112634227  1.0000
  H   H1059     1.0  0.07307023440664463  0.8201600210754163  0.8286533952407089  1.0000
  H   H1060     1.0  0.057713874552555715  0.8350568221845748  0.8043873282649224  1.0000
  C   C1611     1.0  0.8872272529631327  0.8741048761737118  0.3517958164110223  1.0000
  C   C1612     1.0  0.8770734370156594  0.8999489518449008  0.3511464065634986  1.0000
  H   H1061     1.0  0.8890214755180211  0.866331179811984  0.329499411646042  1.0000
  H   H1062     1.0  0.867001544296286  0.8514772226521131  0.36123476350176276  1.0000
  H   H1063     1.0  0.8749385251421221  0.907209784929988  0.37331207205224476  1.0000
  H   H1064     1.0  0.8524583826744414  0.8898510720183043  0.3420439523640493  1.0000
  C   C1613     1.0  0.17216900551288672  0.9291262702603333  0.5344600179783562  1.0000
  C   C1614     1.0  0.146793158176657  0.8930127353165748  0.5332533587567199  1.0000
  H   H1065     1.0  0.1667288020816782  0.9417766723767433  0.5172110065827433  1.0000
  H   H1066     1.0  0.1964168725805027  0.9323153736778846  0.5283367046635866  1.0000
  H   H1067     1.0  0.15067922195310496  0.8808883982043358  0.5517454649099689  1.0000
  H   H1068     1.0  0.15110801592635165  0.8820528005519783  0.5141204158232411  1.0000
  C   C1615     1.0  0.922392128897191  0.1337584164328277  0.7947662034941836  1.0000
  C   C1616     1.0  0.9454383290228615  0.16409135947853837  0.8122209685048535  1.0000
  H   H1069     1.0  0.9049537210814486  0.13828392501718215  0.7824895711291151  1.0000
  H   H1070     1.0  0.9067419047237539  0.11372139506327714  0.8096897703862875  1.0000
  H   H1071     1.0  0.9306229364973408  0.1710293011202388  0.8258264263004984  1.0000
  H   H1072     1.0  0.957620151846302  0.18479752432936852  0.7968451723129888  1.0000
  C   C1617     1.0  0.047908854444237044  0.9669177788712864  0.654125034535421  1.0000
  C   C1618     1.0  0.07163228969505908  0.9639645270442638  0.6332174666720756  1.0000
  H   H1073     1.0  0.06215390484708333  0.9818888366234829  0.6721413354538508  1.0000
  H   H1074     1.0  0.031259384470255044  0.9427433526108652  0.6636604286332195  1.0000
  H   H1075     1.0  0.08405633726097675  0.9527531981931429  0.64467965764421  1.0000
  H   H1076     1.0  0.09127509673948937  0.9889869962448816  0.626918405477778  1.0000
  C   C1619     1.0  0.0072786851034977685  0.9950225366561031  0.7803998859761924  1.0000
  C   C1620     1.0  0.011692600139919386  0.968118613373281  0.766029281924554  1.0000
  H   H1077     1.0  0.024734825352621125  0.00749481232411231  0.7977496309125103  1.0000
  H   H1078     1.0  0.9827590887493984  0.982657828789101  0.7903917959073984  1.0000
  H   H1079     1.0  0.0007450003274510291  0.9472117960177592  0.7805391983197205  1.0000
  H   H1080     1.0  0.9963396220992502  0.9596209462741904  0.7467613131811941  1.0000
  C   C1621     1.0  0.31861968750094105  0.025335216455797394  0.3256822534333697  1.0000
  C   C1622     1.0  0.3367585135694994  0.0629063847912561  0.3262480758747765  1.0000
  H   H1081     1.0  0.3162965737200387  0.015302323857659728  0.3473828300214141  1.0000
  H   H1082     1.0  0.3326223084341239  0.01562371955534858  0.3135513632123  1.0000
  H   H1083     1.0  0.3385630542381075  0.07149716998640687  0.3039430980425022  1.0000
  H   H1084     1.0  0.36279617280636745  0.07228697776283255  0.33121402510485043  1.0000
  C   C1623     1.0  0.20565876915000691  0.15311177248507665  0.5933612768220733  1.0000
  C   C1624     1.0  0.2015334140334149  0.13764404730186477  0.6228376254458139  1.0000
  H   H1085     1.0  0.20701889483157163  0.17671659248778562  0.5972041542366278  1.0000
  H   H1086     1.0  0.18265757792861287  0.14003368496316984  0.5814039912137079  1.0000
  H   H1087     1.0  0.1778698232466702  0.13326225554028784  0.6315307156819728  1.0000
  H   H1088     1.0  0.2207927731134631  0.15583002241487048  0.6371546478268645  1.0000
  C   C1625     1.0  0.15278231097469516  0.9783472060513253  0.37289199175483667  1.0000
  C   C1626     1.0  0.13240317289310685  0.9547735008916167  0.3966393881593336  1.0000
  H   H1089     1.0  0.1651950574205168  0.9673688704946831  0.36028529629894757  1.0000
  H   H1090     1.0  0.13786725094978933  0.9814523689934033  0.3570361037945056  1.0000
  H   H1091     1.0  0.14614084475810646  0.9614403831520713  0.416824675103156  1.0000
  H   H1092     1.0  0.13103207472423414  0.9315520059563279  0.3925114562572523  1.0000
  C   C1627     1.0  0.3730117306304452  0.32612544961419876  0.8130589858328461  1.0000
  C   C1628     1.0  0.38907657931691264  0.3054315330157324  0.820333233431841  1.0000
  H   H1093     1.0  0.3683639235006309  0.33641190857043946  0.8327341752726729  1.0000
  H   H1094     1.0  0.3918395802084515  0.34729469997848694  0.800141516687548  1.0000
  H   H1095     1.0  0.4136322609815803  0.32091855343993175  0.8293971088284671  1.0000
  H   H1096     1.0  0.3934977662760577  0.29648449447467456  0.8002701126969586  1.0000
  C   C1629     1.0  0.36486622359186505  0.2960668052618223  0.5438389535980385  1.0000
  C   C1630     1.0  0.3573657564651748  0.2975189370735126  0.5763073027073998  1.0000
  H   H1097     1.0  0.3920477757563969  0.3112493476666606  0.5394473998766653  1.0000
  H   H1098     1.0  0.35396148894724233  0.30746715512941597  0.5306942981694482  1.0000
  H   H1099     1.0  0.3733423095905004  0.3228425117327404  0.5839373325990974  1.0000
  H   H1100     1.0  0.36465800463241704  0.2829670251935218  0.5889568634997591  1.0000
  C   C1631     1.0  0.1335345574774559  0.24774187656872015  0.7766277363668138  1.0000
  C   C1632     1.0  0.10577050952833653  0.23725124481267948  0.7544213488084208  1.0000
  H   H1101     1.0  0.12314475414668999  0.23292391721461425  0.7959064214442911  1.0000
  H   H1102     1.0  0.13966995286613262  0.27210268247447333  0.7839362762349847  1.0000
  H   H1103     1.0  0.11412378393365688  0.25307499431384445  0.7354748700885877  1.0000
  H   H1104     1.0  0.08686134159480158  0.2428434078306235  0.7634423588685768  1.0000
  C   C1633     1.0  0.26334380719636735  0.12804036956325543  0.7818465910820619  1.0000
  C   C1634     1.0  0.2607508180759368  0.10192440518426225  0.7598352408046085  1.0000
  H   H1105     1.0  0.2877434725485728  0.13863274769059983  0.7911869478989209  1.0000
  H   H1106     1.0  0.24728735544736918  0.11583204210970569  0.8001972416249593  1.0000
  H   H1107     1.0  0.28056910170043164  0.09608765154746138  0.7634359290681062  1.0000
  H   H1108     1.0  0.26648061299468634  0.11178440524241458  0.737369517960571  1.0000
  C   C1635     1.0  0.15184621692400632  0.3206349428228388  0.33140048931849586  1.0000
  C   C1636     1.0  0.1894782960600714  0.3367757091154269  0.32820487848464164  1.0000
  H   H1109     1.0  0.14025139210086304  0.3127875461462098  0.3103857581139749  1.0000
  H   H1110     1.0  0.1456815287011366  0.3394272310367307  0.3380831952742018  1.0000
  H   H1111     1.0  0.2014883977325694  0.34411206652776133  0.34889597639881254  1.0000
  H   H1112     1.0  0.19984188570085015  0.36017863146930307  0.31583179911251524  1.0000
  C   C1637     1.0  0.9272065639038638  0.06186636627418651  0.49884749643890486  1.0000
  C   C1638     1.0  0.9391856444721934  0.03799870715821552  0.5070733545075384  1.0000
  H   H1113     1.0  0.9054503502639917  0.05769189435854116  0.5113856073564417  1.0000
  H   H1114     1.0  0.9186517964266124  0.05726968440408964  0.47664325214733555  1.0000
  H   H1115     1.0  0.9606590379414676  0.04314721765866403  0.4930285270130737  1.0000
  H   H1116     1.0  0.9224880143028932  0.013721669342037002  0.5009200354572396  1.0000
  C   C1639     1.0  0.08339951730955371  0.12349178194510799  0.6016707222968237  1.0000
  C   C1640     1.0  0.11992481413348721  0.13564267965760402  0.5956802915251117  1.0000
  H   H1117     1.0  0.0797153966765816  0.12861468089032999  0.6243143362872128  1.0000
  H   H1118     1.0  0.07022674222369983  0.09654778510406746  0.5993088422573151  1.0000
  H   H1119     1.0  0.12388030270575569  0.13023054097946787  0.5732745801521324  1.0000
  H   H1120     1.0  0.12634944325280692  0.12053855547345098  0.6090499899701706  1.0000
  C   C1641     1.0  0.9911984661236396  0.056788750336923544  0.4239424642240346  1.0000
  C   C1642     1.0  0.00020083490371178972  0.07923042158333767  0.3969158695795665  1.0000
  H   H1121     1.0  0.0047955249863480326  0.0700039565309194  0.4427624902012807  1.0000
  H   H1122     1.0  0.9664716504109092  0.05073785813789944  0.42981287205362995  1.0000
  H   H1123     1.0  0.9785365741740834  0.08175814998688967  0.39411033330759115  1.0000
  H   H1124     1.0  0.0016692902413123917  0.06744136199882189  0.37680345370774343  1.0000
  C   C1643     1.0  0.24765188995092305  0.24095732586397095  0.38971020651892396  1.0000
  C   C1644     1.0  0.2632250654182664  0.22770620522967194  0.4107999520622679  1.0000
  H   H1125     1.0  0.2624410938673651  0.2681510316215884  0.38952802883892557  1.0000
  H   H1126     1.0  0.2495946068004348  0.23369211914185972  0.3676988562414706  1.0000
  H   H1127     1.0  0.2539466403464649  0.22649421380843643  0.43332139984371676  1.0000
  H   H1128     1.0  0.28910567394827474  0.24590393502309518  0.4134490298561269  1.0000
  C   C1645     1.0  0.6067908384671943  0.7874576427116483  0.3172870772856789  1.0000
  C   C1646     1.0  0.6050614509755463  0.7540591508898159  0.31833084822872854  1.0000
  H   H1129     1.0  0.6266965743291724  0.8042364476895384  0.3316855438060228  1.0000
  H   H1130     1.0  0.5842015284646411  0.78543852638429  0.3270796634022986  1.0000
  H   H1131     1.0  0.6240414690895775  0.7527686250189928  0.30487541911072924  1.0000
  H   H1132     1.0  0.6119828925140789  0.7506723749783982  0.3404214993786518  1.0000
  C   C1647     1.0  0.7816111548615404  0.9147750137506737  0.19584786445211208  1.0000
  C   C1648     1.0  0.7642165943628696  0.9048574652443713  0.16757045928944325  1.0000
  H   H1133     1.0  0.7788704757080009  0.8933400538933158  0.2076771970311139  1.0000
  H   H1134     1.0  0.7718532688367375  0.9268163474691844  0.20975916642347203  1.0000
  H   H1135     1.0  0.7728711345769028  0.8910480659755701  0.1544403780752529  1.0000
  H   H1136     1.0  0.7706235377148085  0.9263917263776477  0.15410388518396173  1.0000
  C   C1649     1.0  0.3595682231944372  0.560660885292488  0.231003441504791  1.0000
  C   C1650     1.0  0.3910357571515281  0.5751281670791595  0.211500356390892  1.0000
  H   H1137     1.0  0.36070092016009064  0.5801560901703778  0.24498611426137384  1.0000
  H   H1138     1.0  0.3601328741310764  0.5425910524908281  0.24560123183972135  1.0000
  H   H1139     1.0  0.39071273651001814  0.5931858792777243  0.19690985316316156  1.0000
  H   H1140     1.0  0.3897053347148884  0.5560914126248743  0.19656050067092934  1.0000
  C   C1651     1.0  0.4103887354947103  0.6251008596213551  0.1456399101712362  1.0000
  C   C1652     1.0  0.38926323381806743  0.6029159871194594  0.1204569536483519  1.0000
  H   H1141     1.0  0.41852643653543026  0.6105219754109793  0.15743280721423833  1.0000
  H   H1142     1.0  0.3963883633854828  0.6313079645250773  0.16093576251058397  1.0000
  H   H1143     1.0  0.37962344999043535  0.5774017832987262  0.1271673077460811  1.0000
  H   H1144     1.0  0.40596698842340473  0.605987564580982  0.10163478440428221  1.0000
  C   C1653     1.0  0.165058727079743  0.3681026322552618  0.17456629652806402  1.0000
  C   C1654     1.0  0.17342557849148274  0.3532580625555336  0.19999915796256967  1.0000
  H   H1145     1.0  0.1383690227822633  0.35736597998808245  0.17397754113164568  1.0000
  H   H1146     1.0  0.1714754261751071  0.3611218719459363  0.1541969029641021  1.0000
  H   H1147     1.0  0.18761517890457563  0.373431744688397  0.2158098229929247  1.0000
  H   H1148     1.0  0.15170024984250735  0.33610778753101744  0.21120587152934167  1.0000
  C   C1655     1.0  0.2735399950543237  0.6377587854890142  0.3539219370999448  1.0000
  C   C1656     1.0  0.25862676201515383  0.647480149955219  0.37927249708842764  1.0000
  H   H1149     1.0  0.2793249020172083  0.653728829427621  0.3350033208488171  1.0000
  H   H1150     1.0  0.2519704992226558  0.6144598441189262  0.34600685272072024  1.0000
  H   H1151     1.0  0.2329995258178456  0.6285887333303042  0.3812550189001748  1.0000
  H   H1152     1.0  0.2685179765423542  0.6450646783379607  0.40053370397765226  1.0000
  C   C1657     1.0  0.19804165081674924  0.6162876492770184  0.2364473392365078  1.0000
  C   C1658     1.0  0.1767829283323232  0.5820977823403641  0.24845820651546094  1.0000
  H   H1153     1.0  0.22426911380062475  0.6253589083935852  0.24035451465576754  1.0000
  H   H1154     1.0  0.19641096870625616  0.6152974834664643  0.21266565056283468  1.0000
  H   H1155     1.0  0.15137808713909612  0.5737111884327556  0.24370444070091452  1.0000
  H   H1156     1.0  0.17950384092279617  0.5828575921932319  0.27235777486442714  1.0000
  C   C1659     1.0  0.4224797689938015  0.887076983108288  0.40928037588439886  1.0000
  C   C1660     1.0  0.4030842865703195  0.8793746720103294  0.3810899873547645  1.0000
  H   H1157     1.0  0.40731240145829556  0.8732902333241686  0.42739312380988653  1.0000
  H   H1158     1.0  0.431574291931426  0.9125050584004173  0.4153822565309334  1.0000
  H   H1159     1.0  0.4158292052045671  0.8741212066783968  0.36397814503585624  1.0000
  H   H1160     1.0  0.40360007698441686  0.9021252014324084  0.37443514386776433  1.0000
  C   C1661     1.0  0.5406858134737488  0.911129833776307  0.17269522459113934  1.0000
  C   C1662     1.0  0.5782442210380856  0.9259870892252485  0.16990340522683448  1.0000
  H   H1161     1.0  0.5292993891615754  0.8891706589242504  0.1598540557447582  1.0000
  H   H1162     1.0  0.5330625463911584  0.9268946091317438  0.16189744633429315  1.0000
  H   H1163     1.0  0.5910905665688987  0.9480424510772673  0.18398766883085174  1.0000
  H   H1164     1.0  0.5851393951085956  0.9346716386814086  0.14806866013563835  1.0000
  C   C1663     1.0  0.48756238564053006  0.7203332567831635  0.4582068709314978  1.0000
  C   C1664     1.0  0.521152704718745  0.7423849005280008  0.44398843882432876  1.0000
  H   H1165     1.0  0.4788104419175402  0.735664710175942  0.4680037435817645  1.0000
  H   H1166     1.0  0.4897685590644207  0.7056089421353937  0.475515893798169  1.0000
  H   H1167     1.0  0.5311783568733468  0.7295733547063163  0.4315253422456149  1.0000
  H   H1168     1.0  0.5381673218743048  0.7538071594869524  0.46185042453146574  1.0000
  C   C1665     1.0  0.3384178367049741  0.002291144586474392  0.22242608767710176  1.0000
  C   C1666     1.0  0.36720678465499523  0.007016084914491794  0.20264587816292287  1.0000
  H   H1169     1.0  0.33425311790174106  0.9840479714784739  0.23905998149436716  1.0000
  H   H1170     1.0  0.34582576142398924  0.02505308417554719  0.23490633039040373  1.0000
  H   H1171     1.0  0.38896353773839576  0.017022780245339764  0.215974854538335  1.0000
  H   H1172     1.0  0.37201863458500894  0.024752896749283604  0.18563112583111963  1.0000
  C   C1667     1.0  0.2546181652941284  0.7133255714405802  0.0720838500950834  1.0000
  C   C1668     1.0  0.27005536938321556  0.7358347366162477  0.045980651144678975  1.0000
  H   H1173     1.0  0.22867803149513338  0.7056996104056711  0.0697989133345388  1.0000
  H   H1174     1.0  0.26096809905259033  0.7276619548256752  0.09217354733857722  1.0000
  H   H1175     1.0  0.2700884465399362  0.7223520252315263  0.027049175292610306  1.0000
  H   H1176     1.0  0.25253678213055714  0.7438711343304744  0.039739458154616214  1.0000
  C   C1669     1.0  0.18070220704662307  0.803060883270846  0.1627626831509444  1.0000
  C   C1670     1.0  0.16520889588279242  0.8016861870825646  0.1929598124074316  1.0000
  H   H1177     1.0  0.1702778608446119  0.8114827243539006  0.14544573019702614  1.0000
  H   H1178     1.0  0.1721017316522867  0.7777626865140294  0.15470592883468584  1.0000
  H   H1179     1.0  0.13903599724060955  0.7927418465610402  0.18847781282610634  1.0000
  H   H1180     1.0  0.17421668681609861  0.8264507628711737  0.20123689455314703  1.0000
  C   C1671     1.0  0.31716279162170696  0.7894765480454224  0.258617291258901  1.0000
  C   C1672     1.0  0.3359408976658852  0.8066020357575227  0.2859889518619543  1.0000
  H   H1181     1.0  0.29158705603557444  0.773491564166234  0.2642476532042632  1.0000
  H   H1182     1.0  0.325627740495165  0.7726637018771507  0.2504042927912085  1.0000
  H   H1183     1.0  0.32978674032491634  0.7871880898650354  0.30180197448581514  1.0000
  H   H1184     1.0  0.32517532706863805  0.8212576886950298  0.2955865006976345  1.0000
  C   C1673     1.0  0.5348253257734372  0.8658438099552501  0.09112741880202173  1.0000
  C   C1674     1.0  0.5219298321478478  0.8735501788904091  0.06349542762640725  1.0000
  H   H1185     1.0  0.5241551813319142  0.8719858472187993  0.10968403728665845  1.0000
  H   H1186     1.0  0.5606991218979532  0.8838283864996972  0.09116964115844489  1.0000
  H   H1187     1.0  0.5391439179333624  0.8987131492636413  0.057080630023640166  1.0000
  H   H1188     1.0  0.52235676532155  0.8596563001220942  0.04433462222422291  1.0000
  C   C1675     1.0  0.6846566809495896  0.9314212168724296  0.42516626958025905  1.0000
  C   C1676     1.0  0.6649480950245084  0.9464523631666925  0.4119916084161397  1.0000
  H   H1189     1.0  0.6844746361131584  0.9128626763685419  0.4101505422147442  1.0000
  H   H1190     1.0  0.7108748374894276  0.949561117330227  0.4251726993807296  1.0000
  H   H1191     1.0  0.6764264543917001  0.95918633795373  0.39118691736032274  1.0000
  H   H1192     1.0  0.6668821309617877  0.9656604150804126  0.426567966082835  1.0000
  C   C1677     1.0  0.8313392318939377  0.9192724042937288  0.6558825133306997  1.0000
  C   C1678     1.0  0.8150954297699309  0.9350635888585281  0.6395636797364903  1.0000
  H   H1193     1.0  0.8219257027441939  0.8936826514701678  0.649339119718522  1.0000
  H   H1194     1.0  0.825464281610756  0.9183089028394  0.6793448552476697  1.0000
  H   H1195     1.0  0.8181790849555913  0.9322346265291379  0.6164678364463406  1.0000
  H   H1196     1.0  0.8295571157717572  0.9614211497620484  0.6431172161298708  1.0000
  C   C1679     1.0  0.5608228825332651  0.6664194890387847  0.0278807628201323  1.0000
  C   C1680     1.0  0.5298404730445085  0.6354921653349942  0.01768309927386924  1.0000
  H   H1197     1.0  0.5766026570834113  0.6593708865991219  0.039327950924502364  1.0000
  H   H1198     1.0  0.5766322391798463  0.6817481240457338  0.01043671414357994  1.0000
  H   H1199     1.0  0.5348251695113565  0.6148037973628099  0.018979775702093082  1.0000
  H   H1200     1.0  0.5084035435335658  0.6288540553456378  0.0314685914826891  1.0000
  C   C1681     1.0  0.5908588745108523  0.7650711763840583  0.714344402475597  1.0000
  C   C1682     1.0  0.627059905793583  0.7901116755177027  0.7176707525856855  1.0000
  H   H1201     1.0  0.5753444087108529  0.7761996798757119  0.7190724490882613  1.0000
  H   H1202     1.0  0.5848806973773196  0.7564937483776352  0.6913257167910937  1.0000
  H   H1203     1.0  0.6426773688481167  0.7794685367104979  0.7104993817942191  1.0000
  H   H1204     1.0  0.6327568229217476  0.7958309022996506  0.740031455355371  1.0000
  C   C1683     1.0  0.30152075598203865  0.8822054925555143  0.4628856224072213  1.0000
  C   C1684     1.0  0.2669513379006155  0.8547364164364906  0.47121650055020686  1.0000
  H   H1205     1.0  0.30302530358678764  0.9053095104938662  0.46982552038174846  1.0000
  H   H1206     1.0  0.3067049403276324  0.8864181403049385  0.4400576874700104  1.0000
  H   H1207     1.0  0.2665224362420394  0.8465489885037145  0.49358363312036296  1.0000
  H   H1208     1.0  0.25071809304807446  0.8651377705060473  0.4717608903233785  1.0000
  C   C1685     1.0  0.5283835115108432  0.9479369252556887  0.47727337259344765  1.0000
  C   C1686     1.0  0.5553584084949752  0.959778632602341  0.5003306370807742  1.0000
  H   H1209     1.0  0.5342744076395984  0.9359088175450508  0.4598336104505423  1.0000
  H   H1210     1.0  0.5294523936460145  0.9704677235626707  0.468702448566229  1.0000
  H   H1211     1.0  0.5465739689897521  0.9682897296696077  0.5192342504641373  1.0000
  H   H1212     1.0  0.575566443780516  0.9822387739421703  0.49246270457166696  1.0000
  C   C1687     1.0  0.3051052077849662  0.9778645556600547  0.6458177323274941  1.0000
  C   C1688     1.0  0.32403576698178654  0.01502634089106869  0.6505972173439226  1.0000
  H   H1213     1.0  0.2911841322296889  0.9725228441734172  0.6253473908961448  1.0000
  H   H1214     1.0  0.28685818970360116  0.967513369813764  0.6628266978388738  1.0000
  H   H1215     1.0  0.34335194407172265  0.02571957226494037  0.634235518413243  1.0000
  H   H1216     1.0  0.3354648468865051  0.020005069292068356  0.6722635016627908  1.0000
  C   C1689     1.0  0.4402459208160691  0.9591166532224749  0.9701711603302873  1.0000
  C   C1690     1.0  0.42371209705740165  0.9527065591621181  0.9404804850241955  1.0000
  H   H1217     1.0  0.4652907008004469  0.9632600808436569  0.9678735782954839  1.0000
  H   H1218     1.0  0.4413022414916528  0.981460948473161  0.9788063823622113  1.0000
  H   H1219     1.0  0.431095277163867  0.9763787942117831  0.9303449762158142  1.0000
  H   H1220     1.0  0.39741652778381764  0.9413192887366023  0.9438518437375776  1.0000
  C   C1691     1.0  0.6738653793876753  0.023670846215163577  0.7368508473892814  1.0000
  C   C1692     1.0  0.6716487878964623  0.020804481450377166  0.7033730196060465  1.0000
  H   H1221     1.0  0.6953810234464337  0.047425715834138904  0.7430041664395801  1.0000
  H   H1222     1.0  0.6819255946094196  0.0072475465005552575  0.7459875938579069  1.0000
  H   H1223     1.0  0.6900253006463947  0.04498250544217819  0.694210553935539  1.0000
  H   H1224     1.0  0.6478551829031839  0.017452687900675334  0.6971103939477487  1.0000
  C   C1693     1.0  0.5377531056567696  0.8012832179098945  0.9197465217735544  1.0000
  C   C1694     1.0  0.5091083952539044  0.8071236054123205  0.9288489759730039  1.0000
  H   H1225     1.0  0.5536950822668106  0.8095521716605619  0.9388816079738567  1.0000
  H   H1226     1.0  0.5535078562040326  0.8167181240058958  0.9021138656165332  1.0000
  H   H1227     1.0  0.4898840874206011  0.7846434972604266  0.9380950290496283  1.0000
  H   H1228     1.0  0.5179411522643372  0.8242036052967311  0.9471331852443723  1.0000
  C   C1695     1.0  0.49264426697068897  0.029309859209573297  0.6793898638509633  1.0000
  C   C1696     1.0  0.4971329070579678  0.042230597584181684  0.7104157943881022  1.0000
  H   H1229     1.0  0.5164530466043645  0.031728698597612626  0.6731486708609007  1.0000
  H   H1230     1.0  0.49195500094534317  0.04725785116592229  0.6654371968299096  1.0000
  H   H1231     1.0  0.47335628726788154  0.03500057558591885  0.7205470166628366  1.0000
  H   H1232     1.0  0.5074024987226423  0.06907154443838603  0.7101200235664576  1.0000
  C   C1697     1.0  0.2420477027063112  0.6025257626714655  0.9442804971022798  1.0000
  C   C1698     1.0  0.23789267721308519  0.570797397669055  0.9574615880668698  1.0000
  H   H1233     1.0  0.2185002175757677  0.6024065119554947  0.9465266407333188  1.0000
  H   H1234     1.0  0.25847712580700144  0.6229811563478715  0.9577616454221611  1.0000
  H   H1235     1.0  0.214030439627428  0.5503998769446962  0.9515954667709212  1.0000
  H   H1236     1.0  0.25702960524601737  0.5660248573554175  0.9473367955926059  1.0000
  C   C1699     1.0  0.3135098770016174  0.7796055589655921  0.6930038947139026  1.0000
  C   C1700     1.0  0.2856709647744898  0.7740484115146611  0.7145994512275948  1.0000
  H   H1237     1.0  0.30098077336226936  0.76275542803443  0.6752212098792354  1.0000
  H   H1238     1.0  0.32937176537848156  0.7718194141505049  0.7031501198564014  1.0000
  H   H1239     1.0  0.27113815593085705  0.7843192198823407  0.7060392435344937  1.0000
  H   H1240     1.0  0.29489036078867126  0.7887944143103748  0.7344246693450673  1.0000
  C   C1701     1.0  0.3508412632242408  0.7625943130028555  0.767930359597008  1.0000
  C   C1702     1.0  0.35078254231245437  0.7925794937698397  0.7812871984411257  1.0000
  H   H1241     1.0  0.3765317828592797  0.7690566948869768  0.7608425762116585  1.0000
  H   H1242     1.0  0.3363590624473687  0.7552811003158546  0.7468749063228401  1.0000
  H   H1243     1.0  0.3538505145472788  0.8086674853954053  0.7628058086219942  1.0000
  H   H1244     1.0  0.3270607194949273  0.786488530311149  0.7906447013925727  1.0000
  C   C1703     1.0  0.37905517797934785  0.5665597882071006  0.8483650202165355  1.0000
  C   C1704     1.0  0.3661005352882244  0.5706043920384403  0.8191908722149098  1.0000
  H   H1245     1.0  0.3846048942362375  0.5466218982768478  0.8465668193516102  1.0000
  H   H1246     1.0  0.35754139940000834  0.557212178160665  0.8632178593034635  1.0000
  H   H1247     1.0  0.38624270894645435  0.581883881595365  0.8039050932296326  1.0000
  H   H1248     1.0  0.351706025829824  0.5468398341511058  0.8099469624051089  1.0000
  C   C1705     1.0  0.35227756343795047  0.5002356378275984  0.483748181667273  1.0000
  C   C1706     1.0  0.3328934037199048  0.49974912404824795  0.4571588134548011  1.0000
  H   H1249     1.0  0.37351498339102157  0.4992375730265134  0.47449141225653096  1.0000
  H   H1250     1.0  0.3374818876718857  0.478259837641495  0.4973686423306826  1.0000
  H   H1251     1.0  0.30797331984280774  0.4934611106141371  0.46408799509521076  1.0000
  H   H1252     1.0  0.32975669007495134  0.4801862314531281  0.4417272923255251  1.0000
  C   C1707     1.0  0.3558652153058059  0.7263111760629444  0.5491456822530506  1.0000
  C   C1708     1.0  0.358352288053477  0.7103650939997563  0.5207002449714185  1.0000
  H   H1253     1.0  0.3310351720306949  0.7115749118447452  0.558768950290613  1.0000
  H   H1254     1.0  0.37242569136454806  0.7261208433860076  0.5651301662227922  1.0000
  H   H1255     1.0  0.376163715075445  0.729347549609052  0.5059224202233132  1.0000
  H   H1256     1.0  0.33510135005069513  0.6995323926511142  0.5096152689602219  1.0000
  C   C1709     1.0  0.3948824387677174  0.573771853358302  0.7410837993657148  1.0000
  C   C1710     1.0  0.4280997726090445  0.5908493396867733  0.7252514873404422  1.0000
  H   H1257     1.0  0.3919916614595289  0.5909003224075265  0.7554608332178235  1.0000
  H   H1258     1.0  0.39408349738877985  0.553903339065018  0.7536690621533686  1.0000
  H   H1259     1.0  0.42913475867638456  0.5737196274976323  0.7089283672125858  1.0000
  H   H1260     1.0  0.42909246713160315  0.6101304436479287  0.711997525303853  1.0000
  C   C1711     1.0  0.1884056616289557  0.5460486263126005  0.626502611714017  1.0000
  C   C1712     1.0  0.162696777226538  0.543676881276932  0.648541824460176  1.0000
  H   H1261     1.0  0.19775273594180817  0.5694448505754035  0.6150918591456468  1.0000
  H   H1262     1.0  0.1739610181157906  0.5271966543787144  0.6108524773687429  1.0000
  H   H1263     1.0  0.1507599696127027  0.5196421299901689  0.6592474422436112  1.0000
  H   H1264     1.0  0.14372692178911536  0.5441497418144537  0.6359115530692283  1.0000
  C   C1713     1.0  0.542629913814503  0.7426455345336622  0.5387529814258479  1.0000
  C   C1714     1.0  0.5333444190205342  0.7236813142578561  0.5670955418999515  1.0000
  H   H1265     1.0  0.5521041617636864  0.7319742446554283  0.5226013226438724  1.0000
  H   H1266     1.0  0.5190321049076084  0.7372313230688254  0.5284695872066443  1.0000
  H   H1267     1.0  0.5328838046032134  0.7393228950757682  0.5844024214997992  1.0000
  H   H1268     1.0  0.5522487667003697  0.7177585749631353  0.5735596346396593  1.0000
  C   C1715     1.0  0.24781411980198026  0.39649900119052595  0.6123484776115533  1.0000
  C   C1716     1.0  0.2108514432864382  0.37282371798729896  0.6114397324783849  1.0000
  H   H1269     1.0  0.2587856297636357  0.395520522345127  0.5915202106206777  1.0000
  H   H1270     1.0  0.25932104835790176  0.38772462919556216  0.6287723312801147  1.0000
  H   H1271     1.0  0.20070395269849717  0.3765390390089108  0.5911129899242107  1.0000
  H   H1272     1.0  0.1985906342612495  0.3792462261522299  0.6295953457403427  1.0000
  C   C1717     1.0  0.8851351876726348  0.7340051883759183  0.023274882416408182  1.0000
  C   C1718     1.0  0.918482816529189  0.7397320093026639  0.0108696540419293  1.0000
  H   H1273     1.0  0.8770993181444636  0.7484056548163528  0.010348840203816101  1.0000
  H   H1274     1.0  0.8881355642434733  0.7431892007278756  0.04533124129715538  1.0000
  H   H1275     1.0  0.9231130472128644  0.7207705780150517  0.019183386050326545  1.0000
  H   H1276     1.0  0.9156186317889705  0.734426254202461  0.9879238394294251  1.0000
  C   C1719     1.0  0.8435360524871143  0.5462790841725408  0.9053309091186225  1.0000
  C   C1720     1.0  0.8377008647271394  0.5307044846827798  0.9357331490101196  1.0000
  H   H1277     1.0  0.8203205598023864  0.5392238748096688  0.8945267010613058  1.0000
  H   H1278     1.0  0.8555003071066332  0.5726428964744924  0.9085543824211824  1.0000
  H   H1279     1.0  0.86014608177481  0.5328457801014799  0.9439975858815765  1.0000
  H   H1280     1.0  0.8195184504291451  0.5044162374056039  0.9341471315607219  1.0000
  C   C1721     1.0  0.03166620473201472  0.5788811940689074  0.7672273680788965  1.0000
  C   C1722     1.0  0.059321201902762244  0.6094756232157261  0.7812464763714789  1.0000
  H   H1281     1.0  0.040406449482474335  0.563236238198826  0.7573661974239244  1.0000
  H   H1282     1.0  0.023147824971783557  0.5875788723088009  0.7488059897308234  1.0000
  H   H1283     1.0  0.05677912677806941  0.6306537798026951  0.7765934440976375  1.0000
  H   H1284     1.0  0.058107375855287094  0.6076585063904048  0.8051181822517395  1.0000
  C   C1723     1.0  0.8046215546745243  0.4057944081621865  0.13845460814541707  1.0000
  C   C1724     1.0  0.7939541367354502  0.41872619788444104  0.11257466125152714  1.0000
  H   H1285     1.0  0.7901714503212918  0.4042748773732925  0.15731321292548645  1.0000
  H   H1286     1.0  0.8294323541146372  0.4218931024858908  0.14430594090028323  1.0000
  H   H1287     1.0  0.7704019672620502  0.39873508419953896  0.10386978304783902  1.0000
  H   H1288     1.0  0.8115380767580292  0.424400181474351  0.09416078433733621  1.0000
  C   C1725     1.0  0.9795907024841658  0.458314801091176  0.9682186442540692  1.0000
  C   C1726     1.0  0.9680674497705615  0.48442044287464636  0.9673356183227827  1.0000
  H   H1289     1.0  0.9978297968714858  0.46511417591406173  0.9857334207357974  1.0000
  H   H1290     1.0  0.9938712536672171  0.46120870453539775  0.948500589477772  1.0000
  H   H1291     1.0  0.9887907264765752  0.5072374053654359  0.9756750695330623  1.0000
  H   H1292     1.0  0.9475909356392263  0.47621875109177375  0.9836030135132279  1.0000
  C   C1727     1.0  0.9768461148477438  0.27854857390651133  0.017961723960925546  1.0000
  C   C1728     1.0  0.014048022384192515  0.3018727016948099  0.019965678440907908  1.0000
  H   H1293     1.0  0.9716769130731516  0.2597781795950724  0.001218523535660987  1.0000
  H   H1294     1.0  0.9684297892367166  0.26443344410086456  0.03823702811133556  1.0000
  H   H1295     1.0  0.019413009094105704  0.31520876819947485  0.04092682797484115  1.0000
  H   H1296     1.0  0.02140510805822287  0.3213880981538172  0.0032010453474082823  1.0000
  C   C1729     1.0  0.7891213813438013  0.24706497404897604  0.7474107230287179  1.0000
  C   C1730     1.0  0.8053072629343265  0.24885690026055884  0.7767091805061072  1.0000
  H   H1297     1.0  0.7877522594795794  0.22570037535267745  0.735354847146471  1.0000
  H   H1298     1.0  0.8064424286368974  0.2684425609201618  0.7343239358043624  1.0000
  H   H1299     1.0  0.8268514371507211  0.245565955245727  0.7728127214209649  1.0000
  H   H1300     1.0  0.7877853947899717  0.22867211407115576  0.7910583518895102  1.0000
  C   C1731     1.0  0.7905068467694464  0.21592800382586863  0.8782807385390958  1.0000
  C   C1732     1.0  0.8199631943347724  0.25104517528380466  0.8774362914106326  1.0000
  H   H1301     1.0  0.7919345029677136  0.20242262264889335  0.8970536126462247  1.0000
  H   H1302     1.0  0.7919776590265114  0.2031627080994647  0.8592656752809101  1.0000
  H   H1303     1.0  0.8147977296532364  0.2673932052077435  0.8636572290022834  1.0000
  H   H1304     1.0  0.8397879835427206  0.2501444828391885  0.8659269485683809  1.0000
  C   C1733     1.0  0.5585040139130959  0.051671882374426215  0.9160365269020577  1.0000
  C   C1734     1.0  0.554635218858473  0.08130837327830484  0.9211074962064836  1.0000
  H   H1305     1.0  0.5385581747464357  0.030868544226768657  0.9271429355814894  1.0000
  H   H1306     1.0  0.5812375282355559  0.05517103029496684  0.925919130225265  1.0000
  H   H1307     1.0  0.5310710931791635  0.07557129114632  0.9126523085877345  1.0000
  H   H1308     1.0  0.5517383499335269  0.08213723979716168  0.9444133796453374  1.0000
  C   C1735     1.0  0.654465316040455  0.3481192478125887  0.7145330099560661  1.0000
  C   C1736     1.0  0.6368358309142733  0.36318804072742017  0.7304124738514557  1.0000
  H   H1309     1.0  0.6809135967968805  0.36614467392366895  0.7136607003588972  1.0000
  H   H1310     1.0  0.6467654684374767  0.3453638281995306  0.6924294992052017  1.0000
  H   H1311     1.0  0.6118771851598934  0.34461808144092965  0.7349969215869447  1.0000
  H   H1312     1.0  0.6338420083937474  0.3796808748189207  0.715566064564998  1.0000
  C   C1737     1.0  0.6445198591025725  0.56639640806366  0.9868372031499053  1.0000
  C   C1738     1.0  0.6741858616052645  0.600298915301461  0.9877502348167208  1.0000
  H   H1313     1.0  0.622414861323405  0.5685752888479261  0.9908215361748115  1.0000
  H   H1314     1.0  0.6453178452835256  0.5513842718513333  0.0037518649210506183  1.0000
  H   H1315     1.0  0.6769159566239986  0.6124945138649295  0.9671984492460781  1.0000
  H   H1316     1.0  0.6690715633892292  0.6150567922197143  0.0028409765210586357  1.0000
  C   C1739     1.0  0.7484851142037031  0.39401688610266633  0.925353307783858  1.0000
  C   C1740     1.0  0.7853498655005542  0.4090291983495071  0.919341444343911  1.0000
  H   H1317     1.0  0.7375142282676587  0.3670484144398832  0.9244809981866893  1.0000
  H   H1318     1.0  0.743000732251545  0.39881933469908426  0.9473432253930762  1.0000
  H   H1319     1.0  0.7953220296311796  0.4012099496897335  0.9367469142176401  1.0000
  H   H1320     1.0  0.7979251836208281  0.43564268843247006  0.9208631637886036  1.0000
  C   C1741     1.0  0.6428696428350718  0.6019347566185833  0.7704679875160445  1.0000
  C   C1742     1.0  0.6335430562670993  0.566101360772184  0.7695292366473467  1.0000
  H   H1321     1.0  0.6521267035474616  0.6127858589362943  0.749459686111994  1.0000
  H   H1322     1.0  0.6657557158100328  0.6156097636781886  0.7833383047912252  1.0000
  H   H1323     1.0  0.651636186158535  0.562322322150828  0.7579084439302725  1.0000
  H   H1324     1.0  0.6114521148820643  0.552168721070446  0.7558230453109968  1.0000
  C   C1743     1.0  0.6701877516090983  0.3398674745197991  0.9511260913365726  1.0000
  C   C1744     1.0  0.6833289197515633  0.31601938236081384  0.9570715135049908  1.0000
  H   H1325     1.0  0.6696845016442945  0.34221244331272455  0.9275180072756037  1.0000
  H   H1326     1.0  0.6873354908037425  0.3642183608465307  0.9591440525233255  1.0000
  H   H1327     1.0  0.6744787317462787  0.3035143762302423  0.9780905312431588  1.0000
  H   H1328     1.0  0.7099319573867622  0.3303037303181813  0.9582374506569805  1.0000
  C   C1745     1.0  0.49300527883261835  0.40000368334884706  0.9594676858136755  1.0000
  C   C1746     1.0  0.4882795015489003  0.3978355348894503  0.9263670729913785  1.0000
  H   H1329     1.0  0.5099737828936608  0.4257966430996693  0.9649801680837448  1.0000
  H   H1330     1.0  0.4693005580143886  0.39259858763700584  0.9710820487302793  1.0000
  H   H1331     1.0  0.4691168054506211  0.4032590491533205  0.9194743268869686  1.0000
  H   H1332     1.0  0.47907732912248696  0.3727837213854663  0.9178818796371003  1.0000
  C   C1747     1.0  0.6543722891654903  0.2916942105183435  0.0902999034814643  1.0000
  C   C1748     1.0  0.6620603266039108  0.2969041119351129  0.05731638937422634  1.0000
  H   H1333     1.0  0.6770980110980286  0.30186472297583994  0.10242865043571052  1.0000
  H   H1334     1.0  0.6430246906728334  0.2654141517210096  0.09519984009337414  1.0000
  H   H1335     1.0  0.6422523722023512  0.2789853851697813  0.04419102334704772  1.0000
  H   H1336     1.0  0.6659002511471853  0.32076550295250356  0.05019002718605381  1.0000
  C   C1749     1.0  0.6265778796162085  0.4740239073410816  0.19589244440204112  1.0000
  C   C1750     1.0  0.6524653431495855  0.5087593462533638  0.1866989013625926  1.0000
  H   H1337     1.0  0.6036639491041139  0.4744696629145294  0.2017322035160603  1.0000
  H   H1338     1.0  0.6348349017304671  0.4693043250262124  0.21660711825127063  1.0000
  H   H1339     1.0  0.6420148283224811  0.5183797601868387  0.17132353382409257  1.0000
  H   H1340     1.0  0.6563105624011851  0.5244080164760719  0.2054925651579096  1.0000
  C   C1751     1.0  0.4586516273603175  0.1783774407194377  0.9964733307884088  1.0000
  C   C1752     1.0  0.43346290716739144  0.16318344939458265  0.02123020586677926  1.0000
  H   H1341     1.0  0.4454882747521232  0.17317500362165583  0.9758058088092966  1.0000
  H   H1342     1.0  0.4730964291321769  0.16597689094326365  0.9948765970048934  1.0000
  H   H1343     1.0  0.4229559265949686  0.1360386053258062  0.02158170162583506  1.0000
  H   H1344     1.0  0.4473525012165607  0.17170209375110754  0.041844146175303853  1.0000
  C   C1753     1.0  0.9193131634875202  0.582862087959071  0.17927119585903442  1.0000
  C   C1754     1.0  0.9019974114869135  0.6012152337560229  0.19307040497552475  1.0000
  H   H1345     1.0  0.9455711521623578  0.5978492209884997  0.18304656036864825  1.0000
  H   H1346     1.0  0.9158204846601281  0.5804491415611975  0.1556271049154307  1.0000
  H   H1347     1.0  0.916466391237169  0.6270996964626153  0.18903463354685437  1.0000
  H   H1348     1.0  0.9025273401662584  0.5996449006140434  0.21664141052044678  1.0000
  C   C1755     1.0  0.039789847321879575  0.5857706735398708  0.3362335560055122  1.0000
  C   C1756     1.0  0.04241738773862559  0.6184922590163204  0.3292143571585151  1.0000
  H   H1349     1.0  0.051065349774469235  0.5791519252840599  0.31823225795484705  1.0000
  H   H1350     1.0  0.05576766958179981  0.58786434039431  0.35487140430276  1.0000
  H   H1351     1.0  0.03642232626290387  0.6280492713566784  0.34862163824540315  1.0000
  H   H1352     1.0  0.022819914417353815  0.6150483286449792  0.3137035351567692  1.0000
  C   C1757     1.0  0.5738507238337114  0.12643350662640035  0.6729793527818433  1.0000
  C   C1758     1.0  0.5552949037757388  0.1377915699227925  0.6530855501260183  1.0000
  H   H1353     1.0  0.5560207870928943  0.10395050013508893  0.6846322945012703  1.0000
  H   H1354     1.0  0.588460542367398  0.11858471743110661  0.6589581012224373  1.0000
  H   H1355     1.0  0.5374054757996385  0.11640369539138956  0.6405774449440108  1.0000
  H   H1356     1.0  0.5381823519540399  0.1419874422682715  0.6655036381014385  1.0000
  C   C1759     1.0  0.372952893873375  0.08132779132271853  0.5428659104601646  1.0000
  C   C1760     1.0  0.4008779086628595  0.09652398788405346  0.5661503612307833  1.0000
  H   H1357     1.0  0.35466283672621485  0.05612862279517006  0.5503802039433927  1.0000
  H   H1358     1.0  0.38215674268274713  0.07745869865586144  0.5226613341149307  1.0000
  H   H1359     1.0  0.4083519782657954  0.0782898347045313  0.5707862473700366  1.0000
  H   H1360     1.0  0.3898614758623389  0.10017087790156787  0.5856648056588469  1.0000
  C   C1761     1.0  0.46756640348625167  0.2974879793240396  0.20771770477407822  1.0000
  C   C1762     1.0  0.4709049727610173  0.3211196135119267  0.23189075396972436  1.0000
  H   H1361     1.0  0.44449744519857787  0.2900642251913774  0.19633524332777838  1.0000
  H   H1362     1.0  0.46388845670402856  0.27440311141438767  0.21695861401032634  1.0000
  H   H1363     1.0  0.44794051943048663  0.30972592142361005  0.2440602229936173  1.0000
  H   H1364     1.0  0.47195665838547846  0.34255320171378595  0.22194813917545891  1.0000
  C   C1763     1.0  0.7223458062919575  0.46011305986134765  0.27281214743101134  1.0000
  C   C1764     1.0  0.6966461026438513  0.452892859331057  0.24966272247027388  1.0000
  H   H1365     1.0  0.7122286788527298  0.44190140942079575  0.2902047577037995  1.0000
  H   H1366     1.0  0.7273083750832408  0.482965761058041  0.2840300059852656  1.0000
  H   H1367     1.0  0.702827200447654  0.443925830366287  0.2301954299123275  1.0000
  H   H1368     1.0  0.6967224262914895  0.47519106802427796  0.24282141476962818  1.0000
  C   C1765     1.0  0.47517146022475687  0.34169248125784163  0.4889327441133451  1.0000
  C   C1766     1.0  0.45721936468701585  0.30678373936158787  0.4761567305783987  1.0000
  H   H1369     1.0  0.4887486066806175  0.34244135643955076  0.5085693547503488  1.0000
  H   H1370     1.0  0.45591060309805864  0.3466942553246375  0.49703214943939145  1.0000
  H   H1371     1.0  0.4586121611726729  0.30775400954906623  0.4525293571160183  1.0000
  H   H1372     1.0  0.4313704428756192  0.29731237557233986  0.4794230692174288  1.0000
  C   C1767     1.0  0.5187222574353565  0.5233945175341326  0.3524623723931341  1.0000
  C   C1768     1.0  0.5419046265079767  0.5601918444574644  0.3540933984458256  1.0000
  H   H1373     1.0  0.4948927220710887  0.518371844693989  0.3609389926801183  1.0000
  H   H1374     1.0  0.5143245560967937  0.5145203158672403  0.3300673773542723  1.0000
  H   H1375     1.0  0.5656338013862903  0.5665320357416415  0.34444012467273405  1.0000
  H   H1376     1.0  0.5472778312433377  0.5664648225717585  0.37723210707244553  1.0000
  C   C1769     1.0  0.8830541019273451  0.743971798161901  0.5744555201718867  1.0000
  C   C1770     1.0  0.8889775260932822  0.7623218589302324  0.5454335441147302  1.0000
  H   H1377     1.0  0.8706087656269494  0.753065407292323  0.5893662274630497  1.0000
  H   H1378     1.0  0.9074208517208892  0.752399703784808  0.5830907422038107  1.0000
  H   H1379     1.0  0.886164628866119  0.7452279151986768  0.5281245212480591  1.0000
  H   H1380     1.0  0.869116295611155  0.7672742178392239  0.5408683857806529  1.0000
  C   C1771     1.0  0.8494181196918449  0.5497416127813445  0.7733721140619011  1.0000
  C   C1772     1.0  0.8296340910157782  0.5553286190090524  0.7977153386433341  1.0000
  H   H1381     1.0  0.8516218696334099  0.5279603720636138  0.7785545332411498  1.0000
  H   H1382     1.0  0.8754952448383524  0.5691610698813117  0.7748123893673003  1.0000
  H   H1383     1.0  0.8456786282835196  0.562860494162818  0.8172469292059856  1.0000
  H   H1384     1.0  0.8275476880059194  0.5775213329045982  0.79363455861137  1.0000
  C   C1773     1.0  0.8367879896963545  0.5306299066261011  0.44321257623421795  1.0000
  C   C1774     1.0  0.8585611572408172  0.5450245766381517  0.4694997438245749  1.0000
  H   H1385     1.0  0.8329288006892159  0.5505765156058073  0.4338465002154768  1.0000
  H   H1386     1.0  0.8118657053065804  0.510347163936995  0.4491687147367538  1.0000
  H   H1387     1.0  0.8642533832770497  0.5270928493343813  0.4793437683449589  1.0000
  H   H1388     1.0  0.8825024240696641  0.5633781403213832  0.4617389746566432  1.0000
  C   C1775     1.0  0.6873838355704389  0.5521379355742093  0.4973043443259773  1.0000
  C   C1776     1.0  0.6864080334688352  0.5313306558718632  0.47151441463867483  1.0000
  H   H1389     1.0  0.6666946107523326  0.5373810397850403  0.5111927133423256  1.0000
  H   H1390     1.0  0.6835306779892049  0.5719296326856164  0.4896550250328681  1.0000
  H   H1391     1.0  0.7068196581535016  0.5466853484207225  0.4569594896402146  1.0000
  H   H1392     1.0  0.6911774328722189  0.5122247225622948  0.4794423586188404  1.0000
  C   C1777     1.0  0.7061554869173154  0.36979533249390056  0.6269955630834244  1.0000
  C   C1778     1.0  0.6967659044009361  0.39402012911516754  0.6397265680150771  1.0000
  H   H1393     1.0  0.7187587187049386  0.36567007666849677  0.6451618926794999  1.0000
  H   H1394     1.0  0.7251362180374129  0.3817656983464189  0.6105202710110987  1.0000
  H   H1395     1.0  0.6819868447196135  0.3834596966765473  0.6589388118210256  1.0000
  H   H1396     1.0  0.6801309119295528  0.3961826450301203  0.6253195284274391  1.0000
  C   C1779     1.0  0.764231033000411  0.3592947640528461  0.7001688357048983  1.0000
  C   C1780     1.0  0.7622759432963482  0.3290486587065706  0.6864755039694893  1.0000
  H   H1397     1.0  0.739894899744487  0.35711832923661674  0.7000638156305463  1.0000
  H   H1398     1.0  0.7796434460298606  0.38177168392422256  0.6875814296504208  1.0000
  H   H1399     1.0  0.73673368221838  0.31289187807076707  0.6806886835460108  1.0000
  H   H1400     1.0  0.7685860639945215  0.3158186024373229  0.7016562628804145  1.0000
  C   C1781     1.0  0.9165160943752761  0.3598592590760755  0.41228952250460765  1.0000
  C   C1782     1.0  0.8911401344276609  0.3624991982516209  0.39290581735277824  1.0000
  H   H1401     1.0  0.9320592311667912  0.3832261503829354  0.4232866245760403  1.0000
  H   H1402     1.0  0.9341317755593401  0.3563847032640507  0.3986304830383749  1.0000
  H   H1403     1.0  0.866735227133633  0.3508282088547125  0.40416439797667914  1.0000
  H   H1404     1.0  0.8880748191602424  0.3473000921027724  0.37341923539342026  1.0000
  C   C1783     1.0  0.7516945392503206  0.2729949818225033  0.483638875059274  1.0000
  C   C1784     1.0  0.7190409983495446  0.27104684629088777  0.47656180800804215  1.0000
  H   H1405     1.0  0.7470967934213264  0.2480592564871492  0.4873938785340645  1.0000
  H   H1406     1.0  0.7677322873698261  0.2804761184248448  0.46451664845991286  1.0000
  H   H1407     1.0  0.7059930226824381  0.2515390710440753  0.4601186649380692  1.0000
  H   H1408     1.0  0.7259014070781602  0.29374840494925203  0.4651317660382604  1.0000
  C   C1785     1.0  0.9212430691292316  0.4957839262414346  0.5806174122894795  1.0000
  C   C1786     1.0  0.921066884270817  0.5079566283149336  0.6116433428266184  1.0000
  H   H1409     1.0  0.9162880881013188  0.50922979973293  0.5637799081239806  1.0000
  H   H1410     1.0  0.9464341207656067  0.5003258904095934  0.5760694000899902  1.0000
  H   H1411     1.0  0.9390909978022545  0.5338419112733146  0.6125177956906107  1.0000
  H   H1412     1.0  0.9287606357555618  0.4952164416697956  0.6265926289206044  1.0000
  C   C1787     1.0  0.9849403950575304  0.27820140142295374  0.5787141913502022  1.0000
  C   C1788     1.0  0.020238863520091896  0.2921194893218769  0.5668597825493653  1.0000
  H   H1413     1.0  0.9847114802412088  0.2925430593172851  0.5981621945067369  1.0000
  H   H1414     1.0  0.9788771605549522  0.25411874475792506  0.5888582732258776  1.0000
  H   H1415     1.0  0.02733794028849022  0.31359291363125796  0.5533550582944253  1.0000
  H   H1416     1.0  0.03601995646534589  0.3010476893954319  0.5855619288513184  1.0000
  C   C1789     1.0  0.7172975208658177  0.15981216325495662  0.16542290593228567  1.0000
  C   C1790     1.0  0.7494455720292195  0.17754029901392038  0.14858454446005737  1.0000
  H   H1417     1.0  0.7136855086443162  0.13571815951044108  0.17210218266107394  1.0000
  H   H1418     1.0  0.6965433196619591  0.1528506343791693  0.15134335751528014  1.0000
  H   H1419     1.0  0.7702034588424507  0.1848630731543645  0.16323805973239902  1.0000
  H   H1420     1.0  0.7520671006676144  0.16001100864059192  0.1348768528369309  1.0000
  C   C1791     1.0  0.5981310023885312  0.2480396997865096  0.3021856192472235  1.0000
  C   C1792     1.0  0.6033061200218371  0.25847545921852105  0.33462396262105576  1.0000
  H   H1421     1.0  0.5937065259229358  0.26448041284702245  0.28775714699135047  1.0000
  H   H1422     1.0  0.5754142709504332  0.2246637720021469  0.2997723008039506  1.0000
  H   H1423     1.0  0.628690068864288  0.2650808466053021  0.34139025598287853  1.0000
  H   H1424     1.0  0.5867047528988413  0.23870904313096078  0.3488659706632834  1.0000
  C   C1793     1.0  0.7562647256449034  0.18003257663618988  0.44282464493916257  1.0000
  C   C1794     1.0  0.7557788648128471  0.16658410749566083  0.47308971575395503  1.0000
  H   H1425     1.0  0.7714818484945524  0.17404054528080568  0.42896628165834333  1.0000
  H   H1426     1.0  0.768689672701006  0.2064427481082957  0.44410203196597486  1.0000
  H   H1427     1.0  0.7344275416042206  0.16477110419350738  0.4851027262997317  1.0000
  H   H1428     1.0  0.752460647501857  0.14163305968513554  0.472266701293727  1.0000
  C   C1795     1.0  0.5158860405644579  0.18021545598539954  0.38657675042295153  1.0000
  C   C1796     1.0  0.5239941195278446  0.15233039153277597  0.38508289344696467  1.0000
  H   H1429     1.0  0.49258125786186113  0.17201111877327316  0.37527101792893336  1.0000
  H   H1430     1.0  0.5343554205336691  0.20155502811094528  0.37445657653599934  1.0000
  H   H1431     1.0  0.5156071531006465  0.1390546876322569  0.364938328572789  1.0000
  H   H1432     1.0  0.5097514150239503  0.13411816256008846  0.4018260938722292  1.0000
  C   C1797     1.0  0.8418858427767009  0.3294400384990288  0.23877921354048728  1.0000
  C   C1798     1.0  0.8522127862001341  0.35156844404048676  0.2118595679105124  1.0000
  H   H1433     1.0  0.8568651421326117  0.34277577214207555  0.2573098984965595  1.0000
  H   H1434     1.0  0.8486312652412955  0.3107711938136473  0.23428692627840916  1.0000
  H   H1435     1.0  0.8358538041522182  0.33872868447479143  0.1942699914166436  1.0000
  H   H1436     1.0  0.8761047760607026  0.3561012642459687  0.2051693605209242  1.0000
  C   C1799     1.0  0.5478133810929005  0.023002701886375876  0.3362185531377476  1.0000
  C   C1800     1.0  0.511344793164506  0.013334106718624783  0.3369987022615054  1.0000
  H   H1437     1.0  0.5553478770003387  0.0196201665577056  0.31472587343158376  1.0000
  H   H1438     1.0  0.5514666597228496  0.005421277309779482  0.34934391916492624  1.0000
  H   H1439     1.0  0.5069890679551535  0.029966034718487577  0.32391191503715  1.0000
  H   H1440     1.0  0.50236725618103  0.014549038584455554  0.35887931326272465  1.0000
