data_image0
_chemical_formula_structural       C6H4C38H24C6H4C38H24C6H4C38H24C6H4C38H24C6H4C38H24C6H4C38H24C6H4C38H24C6H4C38H24C2H4C2H4C2H4C2H4C2H4C2H4C2H4C2H4C2H4C2H4C2H4C2H4C2H4C2H4C2H4C2H4C2H4C2H4C2H4C2H4C2H4C2H4C2H4C2H4C6H4C38H24C6H4C38H24C6H4C38H24C6H4C38H24C6H4C38H24C6H4C38H24C6H4C38H24C6H4C38H24C2H4C2H4C2H4C2H4C2H4C2H4C2H4C2H4C2H4C2H4C2H4C2H4C2H4C2H4C2H4C2H4C2H4C2H4C2H4C2H4C2H4C2H4C2H4C2H4C6H4C38H24C6H4C38H24C6H4C38H24C6H4C38H24C6H4C38H24C6H4C38H24C6H4C38H24C6H4C38H24C2H4C2H4C2H4C2H4C2H4C2H4C2H4C2H4C2H4C2H4C2H4C2H4C2H4C2H4C2H4C2H4C2H4C2H4C2H4C2H4C2H4C2H4C2H4C2H4C6H4C38H24C6H4C38H24C6H4C38H24C6H4C38H24C6H4C38H24C6H4C38H24C6H4C38H24C6H4C38H24C2H4C2H4C2H4C2H4C2H4C2H4C2H4C2H4C2H4C2H4C2H4C2H4C2H4C2H4C2H4C2H4C2H4C2H4C2H4C2H4C2H4C2H4C2H4C2H4
_chemical_formula_sum              "C1600 H1280"
_cell_length_a       57.6513908847437
_cell_length_b       58.78749916748874
_cell_length_c       45.4871108352373
_cell_angle_alpha    99.19670000053891
_cell_angle_beta     81.79909999986853
_cell_angle_gamma    119.4496000008564

_space_group_name_H-M_alt    "P 1"
_space_group_IT_number       1

loop_
  _space_group_symop_operation_xyz
  'x, y, z'

loop_
  _atom_site_type_symbol
  _atom_site_label
  _atom_site_symmetry_multiplicity
  _atom_site_fract_x
  _atom_site_fract_y
  _atom_site_fract_z
  _atom_site_occupancy
  C   C1        1.0  0.4136268807778593  0.3941588679886047  0.4539332183912718  1.0000
  C   C2        1.0  0.4393547852495245  0.40353510966594147  0.44238277754939614  1.0000
  C   C3        1.0  0.45619088400754865  0.42992089412196105  0.44309295546658795  1.0000
  C   C4        1.0  0.44778306584733313  0.44844323990094964  0.4544022038082854  1.0000
  C   C5        1.0  0.4212633059258318  0.4383210163982131  0.4668303173591435  1.0000
  C   C6        1.0  0.4052038224962797  0.4112833393318192  0.46808987819340836  1.0000
  H   H1        1.0  0.44517234739332584  0.3895171512896853  0.4308144705963961  1.0000
  H   H2        1.0  0.4761095195500973  0.4353366304334007  0.43292043844517586  1.0000
  H   H3        1.0  0.41325107539047334  0.4510192230515338  0.4764221857690151  1.0000
  H   H4        1.0  0.3852770193084949  0.4043177289083718  0.4778269087561652  1.0000
  C   C7        1.0  0.43628198106016836  0.4922225101641933  0.43987258893642855  1.0000
  C   C8        1.0  0.4587944338697427  0.4997504741071911  0.4542749077665245  1.0000
  C   C9        1.0  0.4715455266051509  0.025250174766165666  0.4681345434712192  1.0000
  C   C10       1.0  0.4605908319207794  0.041563731698584065  0.4706000668063759  1.0000
  C   C11       1.0  0.4359986710777911  0.032414267470755154  0.45982233527062727  1.0000
  C   C12       1.0  0.4242953183874335  0.007718273013238542  0.44334978081400017  1.0000
  C   C13       1.0  0.4684003573464101  0.4791134707398685  0.45750867388002725  1.0000
  C   C14       1.0  0.49182294047599884  0.48682561895888354  0.4317033096248312  1.0000
  C   C15       1.0  0.01682004314400613  0.007444071728225154  0.437581260184734  1.0000
  C   C16       1.0  0.03575315164937112  0.018701132919683554  0.41489129905684197  1.0000
  C   C17       1.0  0.031059196907623595  0.00819810727958605  0.3857181728547108  1.0000
  C   C18       1.0  0.006598316072648081  0.4866524226277184  0.37937570340557564  1.0000
  C   C19       1.0  0.48681469607073863  0.47680131807308956  0.4020656645334676  1.0000
  C   C20       1.0  0.4585081471051593  0.48470011872860363  0.5150062860058842  1.0000
  C   C21       1.0  0.45804499260193693  0.47857859184970825  0.5428662530403775  1.0000
  C   C22       1.0  0.4735365951386535  0.4684313910660049  0.5489384975587573  1.0000
  C   C23       1.0  0.4932565525162698  0.46907639596763934  0.5270011463619775  1.0000
  C   C24       1.0  0.4930057396869586  0.4739617486512296  0.4979285170349206  1.0000
  C   C25       1.0  0.4746779529462143  0.4809118673601067  0.49111706216877193  1.0000
  C   C26       1.0  0.4664169349064002  0.4548735866211347  0.5792371887617209  1.0000
  C   C27       1.0  0.38100669324432834  0.3985977491108579  0.5927171696050236  1.0000
  C   C28       1.0  0.39555431150237336  0.4138826644668874  0.616805153928394  1.0000
  C   C29       1.0  0.42210647136878593  0.4312101392488506  0.6133301953147129  1.0000
  C   C30       1.0  0.43504209733974836  0.43541798039474017  0.5845813892517845  1.0000
  C   C31       1.0  0.4202624915954108  0.42100636810999764  0.5606653662479857  1.0000
  C   C32       1.0  0.3940924637936159  0.40274468562378773  0.5644127830563127  1.0000
  C   C33       1.0  0.4788565693458714  0.48051170900681256  0.6025345976678399  1.0000
  C   C34       1.0  0.005670069205170838  0.49244813330567094  0.6080931914913953  1.0000
  C   C35       1.0  0.016314504080429622  0.01407410611496749  0.6285588217843089  1.0000
  C   C36       1.0  0.0009729277614320187  0.02476913588917826  0.6430884366561657  1.0000
  C   C37       1.0  0.474770294976512  0.014024808641521974  0.6371211555406414  1.0000
  C   C38       1.0  0.46445360685280407  0.4929780722328384  0.616231205108525  1.0000
  C   C39       1.0  0.4792060119424236  0.42888747110471037  0.6100003988539169  1.0000
  C   C40       1.0  0.48141227755073956  0.40722863103324736  0.6133837936480859  1.0000
  C   C41       1.0  0.4815631587654839  0.39030631871467536  0.589099282102348  1.0000
  C   C42       1.0  0.4810000386843936  0.39588894151300813  0.5613487449984911  1.0000
  C   C43       1.0  0.47678232009795873  0.41630539033278413  0.5577732895097357  1.0000
  C   C44       1.0  0.47586914796858454  0.43338411893443535  0.581803208971952  1.0000
  H   H5        1.0  0.42723772876187355  0.4729312267957731  0.4274400088577893  1.0000
  H   H6        1.0  0.489844518053895  0.0313579770670067  0.47800333660351785  1.0000
  H   H7        1.0  0.4711750203812123  0.06130982778033413  0.4814715954255273  1.0000
  H   H8        1.0  0.4051298581632178  0.0005376525423192369  0.43415989990442583  1.0000
  H   H9        1.0  0.02045515529381638  0.015446844128758507  0.46073574020185837  1.0000
  H   H10       1.0  0.055199275973033965  0.03532967896114474  0.420592821769392  1.0000
  H   H11       1.0  0.0021655022173491466  0.4781971241290874  0.3572552245697715  1.0000
  H   H12       1.0  0.466389096764047  0.4622751235754041  0.3976438020301973  1.0000
  H   H13       1.0  0.4436039062764772  0.48937138941421765  0.510423628502495  1.0000
  H   H14       1.0  0.44257125568875066  0.4792831258120497  0.5589948848578614  1.0000
  H   H15       1.0  0.007465890047691497  0.4630651550425808  0.5312220151150991  1.0000
  H   H16       1.0  0.0060569605784461245  0.4710526692875757  0.48091327945289214  1.0000
  H   H17       1.0  0.386039933882771  0.41268817065085933  0.6388430020002481  1.0000
  H   H18       1.0  0.4323323809860177  0.4421028305031237  0.6333960713712197  1.0000
  H   H19       1.0  0.42922688605782044  0.4218123885462407  0.5377766446338357  1.0000
  H   H20       1.0  0.38400970230164033  0.3918293064313767  0.5440990147079559  1.0000
  H   H21       1.0  0.018302589761204302  0.48468496217766827  0.5951357943984791  1.0000
  H   H22       1.0  0.03736191750822232  0.023010365159399047  0.633380438523986  1.0000
  H   H23       1.0  0.46301890824024705  0.023175129145481924  0.6486336308963779  1.0000
  H   H24       1.0  0.4437142346888812  0.48582325419747413  0.614082805245825  1.0000
  H   H25       1.0  0.47878399242103675  0.4414045451168733  0.6301846378966224  1.0000
  H   H26       1.0  0.4828229816594434  0.4036866362615729  0.635363576858786  1.0000
  H   H27       1.0  0.4800313550426949  0.3823753183753784  0.5422498722065884  1.0000
  H   H28       1.0  0.4719563689153901  0.4177018716779258  0.53655504928571  1.0000
  C   C45       1.0  0.4577165505611137  0.07390689802517081  0.9414547256962734  1.0000
  C   C46       1.0  0.4815684596578507  0.08933740634634103  0.926563322074149  1.0000
  C   C47       1.0  0.4842824183577458  0.08545933881873095  0.8957822458708288  1.0000
  C   C48       1.0  0.4636151731882132  0.06754880923121931  0.8790975313446002  1.0000
  C   C49       1.0  0.4390849849284996  0.05283796787879195  0.8949135062174085  1.0000
  C   C50       1.0  0.43659119330604096  0.0558890598850854  0.925761580337445  1.0000
  H   H29       1.0  0.49825335444635543  0.10386700270183809  0.939531885486518  1.0000
  H   H30       1.0  0.003979527111985256  0.09556194209201806  0.8857526577384112  1.0000
  H   H31       1.0  0.42171314768480617  0.037293772925973946  0.8837293206535813  1.0000
  H   H32       1.0  0.41825204069222865  0.042803787419524675  0.9371154939569533  1.0000
  C   C51       1.0  0.43145828544669385  0.07063198322204992  0.834112896797442  1.0000
  C   C52       1.0  0.4458508627767136  0.05750578074075057  0.8253272366520555  1.0000
  C   C53       1.0  0.4396560661574068  0.040444832137703356  0.7991243514243433  1.0000
  C   C54       1.0  0.4204373139798826  0.03715994742324731  0.7816847937031121  1.0000
  C   C55       1.0  0.4058007534177507  0.050265201780069164  0.791071201835054  1.0000
  C   C56       1.0  0.411364371106521  0.0667715584509348  0.8176626749797204  1.0000
  C   C57       1.0  0.469019448078895  0.0617802204455213  0.8445154399995799  1.0000
  C   C58       1.0  0.47301486549259336  0.036705819732323494  0.8446472025691217  1.0000
  C   C59       1.0  0.49852161028879616  0.040595281489970735  0.8462730186814352  1.0000
  C   C60       1.0  0.003994931393676871  0.020047687928740145  0.8414447021500866  1.0000
  C   C61       1.0  0.4836812260388858  0.49491175085614925  0.83707867124408  1.0000
  C   C62       1.0  0.4575614465584688  0.4904306637465683  0.840723357913442  1.0000
  C   C63       1.0  0.4523654512522662  0.011225539323677975  0.8434747390265881  1.0000
  C   C64       1.0  0.003825092498509447  0.07759249228617052  0.7999662919110772  1.0000
  C   C65       1.0  0.019782988203123054  0.09533108382227685  0.780222005854808  1.0000
  C   C66       1.0  0.02604309123510047  0.12171977833037628  0.7865667085678338  1.0000
  C   C67       1.0  0.016734470263674354  0.12860845084146613  0.8147705982414705  1.0000
  C   C68       1.0  0.4995227462908227  0.11053580715859909  0.8336394448526474  1.0000
  C   C69       1.0  0.49244785848269707  0.08457476402166995  0.8264662012362313  1.0000
  C   C70       1.0  0.039460822654036394  0.14291376124842947  0.7622799637582054  1.0000
  C   C71       1.0  0.0353879838132778  0.09792870186360346  0.6757030225136199  1.0000
  C   C72       1.0  0.022024761292185398  0.11193794409297425  0.6804933735588293  1.0000
  C   C73       1.0  0.024962889645240925  0.1284120294327534  0.7062942712862443  1.0000
  C   C74       1.0  0.039713821690555616  0.12932843228496846  0.7284281497053916  1.0000
  C   C75       1.0  0.05579250714841943  0.11762640606574165  0.7206965901163404  1.0000
  C   C76       1.0  0.0532637696197699  0.10187246048573531  0.6950162886390145  1.0000
  C   C77       1.0  0.07005455416731769  0.16356910298338814  0.7656901577190607  1.0000
  C   C78       1.0  0.08353612905993404  0.1639190951260666  0.7893404223198852  1.0000
  C   C79       1.0  0.10735632114574924  0.18548940817514392  0.796937986075504  1.0000
  C   C80       1.0  0.11896748429535492  0.20683408690816435  0.7805770948134041  1.0000
  C   C81       1.0  0.10836056686348798  0.20455518336721648  0.7544501405579702  1.0000
  C   C82       1.0  0.08448980731981638  0.18291255495696135  0.7469396740940824  1.0000
  C   C83       1.0  0.03098711269423452  0.1832808360897821  0.7816579945364257  1.0000
  C   C84       1.0  0.014243499278321175  0.19312740697343472  0.7940481426011446  1.0000
  C   C85       1.0  0.4870019155744633  0.17737844559250524  0.7921074362802649  1.0000
  C   C86       1.0  0.47787535626092215  0.153850950151519  0.7756840136292296  1.0000
  C   C87       1.0  0.4940204986362782  0.14303964802444885  0.7650000791768837  1.0000
  C   C88       1.0  0.021573467319330613  0.1575203059503222  0.7678742898040093  1.0000
  H   H33       1.0  0.4360819479687195  0.08391590508307925  0.8536226901452043  1.0000
  H   H34       1.0  0.4491506529901738  0.028487203373214882  0.7911292666962081  1.0000
  H   H35       1.0  0.41674043461123794  0.023791554582122336  0.761547453202108  1.0000
  H   H36       1.0  0.40015734692257243  0.07779791806611241  0.8243513003318893  1.0000
  H   H37       1.0  0.01520193866248068  0.06038441151026287  0.8484750168775084  1.0000
  H   H38       1.0  0.02455928901220981  0.024031985433984753  0.8405871288161191  1.0000
  H   H39       1.0  0.44110899366384254  0.4698350289758686  0.8379228449947042  1.0000
  H   H40       1.0  0.4323559470932587  0.007423364379946637  0.8424675370119542  1.0000
  H   H41       1.0  0.49697308215010666  0.057225652675066574  0.7917545805855596  1.0000
  H   H42       1.0  0.024239107292825475  0.08756242606545911  0.7584878816720675  1.0000
  H   H43       1.0  0.02190191155704424  0.14882575759629485  0.8224530260249298  1.0000
  H   H44       1.0  0.49122865235696006  0.1177988938549404  0.853633856464657  1.0000
  H   H45       1.0  0.008609927665617264  0.11073751968457311  0.6649654897279009  1.0000
  H   H46       1.0  0.013085803190296315  0.13836103012808706  0.7102181159419241  1.0000
  H   H47       1.0  0.06918543149752399  0.11883979639120489  0.7359051172109214  1.0000
  H   H48       1.0  0.06500752674787245  0.09161616699750222  0.6908959167609672  1.0000
  H   H49       1.0  0.0744411080715169  0.14806774122306096  0.8036355444832352  1.0000
  H   H50       1.0  0.11555896751792054  0.18680691985755501  0.8169189981041703  1.0000
  H   H51       1.0  0.11764587221141948  0.2214639021484451  0.7413989463816512  1.0000
  H   H52       1.0  0.07603006277598491  0.18205582367973305  0.7268045668569687  1.0000
  H   H53       1.0  0.05202213139898293  0.1971395321274888  0.7852111173862756  1.0000
  H   H54       1.0  0.02345873588186497  0.21236777693646564  0.8062573962907299  1.0000
  H   H55       1.0  0.4565154931044317  0.14084067682580123  0.7748398398786054  1.0000
  H   H56       1.0  0.48509614949381585  0.12260536869914943  0.7554997745865242  1.0000
  C   C89       1.0  0.49106272975348436  0.3643723448074349  0.6452122706160698  1.0000
  C   C90       1.0  0.012105223006334665  0.38288623814837747  0.6610394118083306  1.0000
  C   C91       1.0  0.00855485434869684  0.3865256007133112  0.6918606867616808  1.0000
  C   C92       1.0  0.48521819086724954  0.3706414892453225  0.7075203331621511  1.0000
  C   C93       1.0  0.46431466852502123  0.3507114644904802  0.6912889712057023  1.0000
  C   C94       1.0  0.4673202261312948  0.3479423216973868  0.6602644692383131  1.0000
  H   H57       1.0  0.0314302667446806  0.3950345160187268  0.6495113036053604  1.0000
  H   H58       1.0  0.025677550658552005  0.4014026947276026  0.703190034478393  1.0000
  H   H59       1.0  0.44637664197214955  0.3365925642660168  0.7028215459364537  1.0000
  H   H60       1.0  0.450720176480963  0.3321804814535134  0.6484460367295725  1.0000
  C   C95       1.0  0.43750189379735405  0.3723061630951973  0.748525291456366  1.0000
  C   C96       1.0  0.455232495021267  0.367211565742582  0.7600935984093661  1.0000
  C   C97       1.0  0.44996188709896434  0.36093149344100733  0.7892734244031689  1.0000
  C   C98       1.0  0.4292047500710157  0.3615466145327734  0.8073918943471243  1.0000
  C   C99       1.0  0.413276496611799  0.36884782763303287  0.7964980330890675  1.0000
  C   C100      1.0  0.41652508544491035  0.372725168352608  0.7665499643169188  1.0000
  C   C101      1.0  0.4841017400281462  0.3739954650089018  0.7427791034660052  1.0000
  C   C102      1.0  4.3435719994006486e-05  0.40404540128687816  0.7578692675743877  1.0000
  C   C103      1.0  0.010132242644774563  0.4102432327809258  0.7861446216925215  1.0000
  C   C104      1.0  0.017228344212483298  0.4345208432429907  0.8023246185794878  1.0000
  C   C105      1.0  0.014141872343043005  0.45279491283597845  0.7908367091265474  1.0000
  C   C106      1.0  0.005730300271627557  0.4479173217106672  0.762344728411031  1.0000
  C   C107      1.0  0.49872355971687604  0.42380606677266747  0.7465309868021133  1.0000
  C   C108      1.0  0.4758373381425368  0.32793820085288233  0.7499635134018742  1.0000
  C   C109      1.0  0.48219219058379426  0.3119170339841603  0.7624608581333391  1.0000
  C   C110      1.0  0.0064097740989776135  0.3224325672190427  0.7742011264059108  1.0000
  C   C111      1.0  0.0259258739051363  0.34773757454484316  0.7674566694564784  1.0000
  C   C112      1.0  0.019694621605390428  0.36278960007299665  0.753697530626858  1.0000
  C   C113      1.0  0.49399362772451655  0.3545740396461285  0.7484113949979485  1.0000
  C   C114      1.0  0.010675055405487494  0.31078840983697226  0.8006072386476623  1.0000
  C   C115      1.0  0.4879038556288936  0.3635133245686395  0.8570328841060596  1.0000
  C   C116      1.0  0.46912508108561046  0.33780196208599583  0.8502236625038015  1.0000
  C   C117      1.0  0.47655858733497647  0.32017326450742106  0.8351893299926826  1.0000
  C   C118      1.0  0.0032536854993943055  0.32785746332453697  0.8274555371397407  1.0000
  C   C119      1.0  0.02223024030719311  0.35325444720200455  0.8377665165223664  1.0000
  C   C120      1.0  0.014648459654378498  0.37138728420663775  0.8519700748662042  1.0000
  C   C121      1.0  0.03965341966917462  0.31463391812868813  0.8002566162168473  1.0000
  C   C122      1.0  0.05350381872739143  0.3127848656212691  0.7740559642530256  1.0000
  C   C123      1.0  0.07864380268347661  0.3162451324439106  0.7738929359890161  1.0000
  C   C124      1.0  0.08956452209494312  0.31979622377490335  0.8005268411476026  1.0000
  C   C125      1.0  0.07502177855975076  0.3203452944809022  0.8271227808200501  1.0000
  C   C126      1.0  0.049747308809016476  0.31648464353523387  0.8269664523477123  1.0000
  C   C127      1.0  0.4811344689197304  0.26662532470897526  0.8237259864425379  1.0000
  C   C128      1.0  0.4680046244362294  0.23959448382962018  0.8218522780383745  1.0000
  C   C129      1.0  0.46864988552567244  0.22517163949010918  0.7957431898940649  1.0000
  C   C130      1.0  0.4818526475632838  0.2377303079993395  0.7710008592507661  1.0000
  C   C131      1.0  0.4929351481779091  0.26430585618593855  0.771876298695858  1.0000
  C   C132      1.0  0.4933828523854372  0.27974525938229183  0.7984633053127432  1.0000
  H   H61       1.0  0.4407213898744272  0.3784652816941144  0.7265187090789795  1.0000
  H   H62       1.0  0.46404361324638693  0.3577909253374269  0.7986709988545636  1.0000
  H   H63       1.0  0.42703782080217045  0.35750222036321583  0.8307764005449745  1.0000
  H   H64       1.0  0.4036620572753458  0.37751344371898093  0.7574829129213242  1.0000
  H   H65       1.0  0.008910493541414644  0.39524173815542757  0.7975744662843082  1.0000
  H   H66       1.0  0.024837346935906928  0.4387675081628604  0.8240297103316515  1.0000
  H   H67       1.0  0.0010341853818669597  0.4613016765603382  0.7538851247936634  1.0000
  H   H68       1.0  0.49061079975037053  0.4204461075498616  0.7249308584528051  1.0000
  H   H69       1.0  0.45604274392878225  0.3197370747473675  0.7425513105491701  1.0000
  H   H70       1.0  0.4660774428153098  0.2933845159141861  0.7683075429987744  1.0000
  H   H71       1.0  0.04597854129783903  0.35794454922653585  0.7751212311288134  1.0000
  H   H72       1.0  0.034712972465528166  0.3825907996124697  0.7503364684715944  1.0000
  H   H73       1.0  0.4475735769403506  0.33099674103707416  0.855480765702134  1.0000
  H   H74       1.0  0.4604019725273332  0.3012417435134236  0.8279468551956596  1.0000
  H   H75       1.0  0.04353399445715266  0.36116775940156315  0.8320024624208813  1.0000
  H   H76       1.0  0.028870148384467022  0.39147134746433593  0.8573343747312826  1.0000
  H   H77       1.0  0.04498992269096627  0.30876855851103757  0.7531816466681431  1.0000
  H   H78       1.0  0.09024210871428018  0.31596910981907533  0.7533111759737945  1.0000
  H   H79       1.0  0.08278854803239764  0.3212601390365832  0.8478117375020177  1.0000
  H   H80       1.0  0.037888137845963864  0.31687240656369137  0.8485129823636476  1.0000
  H   H81       1.0  0.48255254202069486  0.2778667747730385  0.8458330656949988  1.0000
  H   H82       1.0  0.45834310069996537  0.2306477820556019  0.841880188608742  1.0000
  H   H83       1.0  0.4821965706458397  0.22638502041023034  0.7497826190267404  1.0000
  H   H84       1.0  0.0032170053649133376  0.2742906289116386  0.7525250670843241  1.0000
  C   C133      1.0  0.28234145569890584  0.38716155911043054  0.8921621251042625  1.0000
  C   C134      1.0  0.27966215467179306  0.3637922140623083  0.8787558419693476  1.0000
  C   C135      1.0  0.2654310868444915  0.35168954205736797  0.85434850090963  1.0000
  C   C136      1.0  0.2532245477425329  0.3624471361409334  0.8419471865254583  1.0000
  C   C137      1.0  0.2562636194427784  0.3865526897465939  0.8548599183405637  1.0000
  C   C138      1.0  0.2704495861824712  0.39861339579386706  0.8800466684980801  1.0000
  H   H85       1.0  0.2896435218038875  0.3549884251516854  0.8873405083645854  1.0000
  H   H86       1.0  0.2649352291034038  0.3336469621420985  0.8437136982628759  1.0000
  H   H87       1.0  0.24662762573360655  0.3954594804972473  0.8453730133335475  1.0000
  H   H88       1.0  0.2716067723590341  0.41737004238700554  0.8898819626720206  1.0000
  C   C139      1.0  0.1961985746298819  0.35187160523163363  0.8394548640236151  1.0000
  C   C140      1.0  0.2112420376157036  0.350780853394234  0.813343542615415  1.0000
  C   C141      1.0  0.20148974303076264  0.348866715510385  0.7862183194009095  1.0000
  C   C142      1.0  0.17894264254419298  0.35037938124390006  0.7853294803724744  1.0000
  C   C143      1.0  0.1647337275620424  0.35276741931409694  0.8120192171283244  1.0000
  C   C144      1.0  0.17283515845349284  0.35263561764067386  0.8388809152037462  1.0000
  C   C145      1.0  0.23754631983241495  0.3483107934086609  0.8127360948371879  1.0000
  C   C146      1.0  0.22382494430014757  0.3169023144431075  0.8069206756662204  1.0000
  C   C147      1.0  0.22016199558952712  0.30436434342128005  0.7780133078670635  1.0000
  C   C148      1.0  0.20387016620199422  0.27827283131337816  0.7725998761963933  1.0000
  C   C149      1.0  0.1908709457013725  0.2635467872348675  0.7958905853108406  1.0000
  C   C150      1.0  0.19444626262502232  0.2747373370146022  0.8247666874155298  1.0000
  C   C151      1.0  0.21087413567568467  0.3016655563125151  0.8305285082531244  1.0000
  C   C152      1.0  0.2660352826621085  0.38633261564057214  0.7790115768261351  1.0000
  C   C153      1.0  0.28836819588955487  0.4005055552828841  0.7615809521604662  1.0000
  C   C154      1.0  0.3086730409138337  0.39421841815028996  0.7560000256980052  1.0000
  C   C155      1.0  0.3026194386958004  0.36924729616207297  0.7624653246611202  1.0000
  C   C156      1.0  0.2800278751355708  0.3543256103685974  0.7788865140482649  1.0000
  C   C157      1.0  0.2611540276828355  0.36261088575785133  0.7882639891246446  1.0000
  C   C158      1.0  0.3386372631543372  0.41391660262967567  0.7442351915226377  1.0000
  C   C159      1.0  0.3377322195287924  0.37304067743188846  0.6546344109702603  1.0000
  C   C160      1.0  0.3250229260861073  0.3881695845540433  0.6616289934754334  1.0000
  C   C161      1.0  0.32547753939639534  0.40061795705191783  0.6898775484268806  1.0000
  C   C162      1.0  0.3395110134834273  0.39954211003854023  0.7113548472622091  1.0000
  C   C163      1.0  0.350899714832524  0.38336382082035986  0.7039292448261618  1.0000
  C   C164      1.0  0.3503974502400437  0.3699796024428326  0.6761273426528226  1.0000
  C   C165      1.0  0.3596874378234977  0.4168982668332423  0.7662909057056162  1.0000
  C   C166      1.0  0.3867721834189553  0.42532022789239365  0.7574829129213242  1.0000
  C   C167      1.0  0.40284984622586245  0.42396529606776173  0.7755053525179865  1.0000
  C   C168      1.0  0.3930115880274484  0.4159461017961372  0.8036333112193446  1.0000
  C   C169      1.0  0.3678668007248104  0.4115144661442338  0.814227915116069  1.0000
  C   C170      1.0  0.35141756441648647  0.4124440481568368  0.7960402139915068  1.0000
  C   C171      1.0  0.36243970290751737  0.45880763157669496  0.7227288602567322  1.0000
  C   C172      1.0  0.37068578923764384  0.4850799756517241  0.7236936302574457  1.0000
  C   C173      1.0  0.3631842570785733  0.4976065005250206  0.747946876108716  1.0000
  C   C174      1.0  0.348103475266154  0.48383376628907904  0.7714832442511228  1.0000
  C   C175      1.0  0.34011761560630394  0.45746700568956145  0.7700204564028188  1.0000
  C   C176      1.0  0.346483554899451  0.44386828882472723  0.7454456205513106  1.0000
  H   H89       1.0  0.20181583390903882  0.3518879208466114  0.8607847674421677  1.0000
  H   H90       1.0  0.21153692196285637  0.3450565222687634  0.7652055394548135  1.0000
  H   H91       1.0  0.1710290231005569  0.3474985309474949  0.7642899012596918  1.0000
  H   H92       1.0  0.16044252457683336  0.35216896719624924  0.8593733446633463  1.0000
  H   H93       1.0  0.22952268738807802  0.31592274994350944  0.7590796966030606  1.0000
  H   H94       1.0  0.20035988685678618  0.26946652567547613  0.748992043609489  1.0000
  H   H95       1.0  0.18445961372073932  0.26333133205460396  0.8442385152771529  1.0000
  H   H96       1.0  0.21155698540193163  0.3108880931135099  0.853497627367334  1.0000
  H   H97       1.0  0.25212394031665186  0.3934348815038371  0.7849185598166148  1.0000
  H   H98       1.0  0.2910066529098748  0.41804998431091683  0.7547136656970539  1.0000
  H   H99       1.0  0.31721009397500805  0.36279698264024274  0.7580255960467256  1.0000
  H   H100      1.0  0.2772911233618297  0.33673103954933425  0.7864438790538542  1.0000
  H   H101      1.0  0.31507634151635733  0.3912881628407212  0.645118473532667  1.0000
  H   H102      1.0  0.31516743452261176  0.41190454009678096  0.6940559851660821  1.0000
  H   H103      1.0  0.36068363460124636  0.38046976105388974  0.7199261140741038  1.0000
  H   H104      1.0  0.3585506230988129  0.3564327079660082  0.6726300514002361  1.0000
  H   H105      1.0  0.39421279819712285  0.4307251193849062  0.7348979151962877  1.0000
  H   H106      1.0  0.4230330911542596  0.42787023792326534  0.7671172133451162  1.0000
  H   H107      1.0  0.3591176140042131  0.4053050224191016  0.8355779179096366  1.0000
  H   H108      1.0  0.33247739641039614  0.4097977172804425  0.8059715385127405  1.0000
  H   H109      1.0  0.36938019156588847  0.44985212023244864  0.7030828378116469  1.0000
  H   H110      1.0  0.3838036719566922  0.4956569245731073  0.7050883087853523  1.0000
  H   H111      1.0  0.3410039571158626  0.493447262408261  0.7904235553067973  1.0000
  H   H112      1.0  0.32911709225426466  0.44750025753011463  0.7900595332926391  1.0000
  C   C177      1.0  0.08235528567255081  0.4571593660462356  0.09162099106776032  1.0000
  C   C178      1.0  0.07579435462787698  0.4761778813035907  0.10510722504995657  1.0000
  C   C179      1.0  0.07181100981512181  0.4799120579782777  0.1354063629056983  1.0000
  C   C180      1.0  0.0733269746008627  0.4635441820645731  0.15290912199503173  1.0000
  C   C181      1.0  0.0845122247660129  0.44755638187544566  0.1393688430266844  1.0000
  C   C182      1.0  0.08925388565252729  0.44487601120395853  0.10912218687237037  1.0000
  H   H113      1.0  0.07012533454839882  0.48578534651301764  0.09132352031754032  1.0000
  H   H114      1.0  0.0654390889860568  0.49463857573022024  0.14460115699583184  1.0000
  H   H115      1.0  0.08793083956793706  0.4359545993690087  0.15208705755692375  1.0000
  H   H116      1.0  0.09517551198619545  0.430105173767415  0.09908187907327817  1.0000
  C   C183      1.0  0.031028407443764106  0.41191727482687196  0.1804088635639809  1.0000
  C   C184      1.0  0.04890009401311416  0.4332748094813135  0.19829998724387932  1.0000
  C   C185      1.0  0.051589059414713125  0.4280224511364889  0.2260733036394197  1.0000
  C   C186      1.0  0.038412607737663  0.4029459703935548  0.23454630684013053  1.0000
  C   C187      1.0  0.020768852717751887  0.3825138605086964  0.21575316787484278  1.0000
  C   C188      1.0  0.016875346244922866  0.38707434382250944  0.18880839238269295  1.0000
  C   C189      1.0  0.06193303509525955  0.4618151814918983  0.18797471497235416  1.0000
  C   C190      1.0  0.03677130595858211  0.46649457196215227  0.1973541999862354  1.0000
  C   C191      1.0  0.03310395368978357  0.47549483863757025  0.2270939052373967  1.0000
  C   C192      1.0  0.010932509804956045  0.4782696440406236  0.23739148503667917  1.0000
  C   C193      1.0  0.4924356431201819  0.47298535784513535  0.2168992789034682  1.0000
  C   C194      1.0  0.4957708550339089  0.4633901031202738  0.18810759417384132  1.0000
  C   C195      1.0  0.016925337824590575  0.45912359158329163  0.17835158086801492  1.0000
  C   C196      1.0  0.1069641678583862  0.4814619642210955  0.21165512863570085  1.0000
  C   C197      1.0  0.12744769736586428  0.0011117083600574284  0.22707380586238185  1.0000
  C   C198      1.0  0.1315761468311552  0.026874621645422866  0.23056663058718727  1.0000
  C   C199      1.0  0.11441747328703897  0.031658002860278554  0.21698056970908383  1.0000
  C   C200      1.0  0.09380923094264543  0.011325961513888866  0.20177673246867284  1.0000
  C   C201      1.0  0.08808530043888556  0.4853538633727028  0.20167310902415175  1.0000
  C   C202      1.0  0.15297953035435874  0.04912085595930154  0.2523275539366144  1.0000
  C   C203      1.0  0.0970066459644623  0.02825648116994394  0.3313806291339687  1.0000
  C   C204      1.0  0.11512341675511424  0.018592090865488197  0.32458704037894437  1.0000
  C   C205      1.0  0.13311859299716367  0.025595338270343455  0.30008366897193345  1.0000
  C   C206      1.0  0.13499988572727675  0.04386573862623423  0.28309299729270093  1.0000
  C   C207      1.0  0.11742504448236879  0.05408031516598486  0.29065706208996184  1.0000
  C   C208      1.0  0.0982368960240494  0.04592997692293861  0.31427606099631866  1.0000
  C   C209      1.0  0.16603265842674803  0.07831182981918537  0.24412924219444002  1.0000
  C   C210      1.0  0.17376069629357543  0.08265222714617985  0.21444894176276708  1.0000
  C   C211      1.0  0.1929292558140314  0.1064737377556708  0.207061528139248  1.0000
  C   C212      1.0  0.20589488425521663  0.12646894838386044  0.22853212718290483  1.0000
  C   C213      1.0  0.19624354381647785  0.1236168438740613  0.2580625756075225  1.0000
  C   C214      1.0  0.17648386169204466  0.10006598799976944  0.2654703119324455  1.0000
  C   C215      1.0  0.1970442409594819  0.05868669988773426  0.274450266036309  1.0000
  C   C216      1.0  0.22293813906765453  0.06379353867298448  0.2702405636026401  1.0000
  C   C217      1.0  0.23302287659366258  0.05726625371440847  0.24295231212412516  1.0000
  C   C218      1.0  0.21653454822424592  0.04528680200741236  0.2199467908084998  1.0000
  C   C219      1.0  0.1906825395429126  0.04079329847147223  0.22331075620682103  1.0000
  C   C220      1.0  0.179908717549145  0.047338248971811596  0.25100546171341437  1.0000
  H   H117      1.0  0.027051680805792108  0.4153831400700884  0.1594114931387296  1.0000
  H   H118      1.0  0.06370741925551666  0.44415376891967845  0.24205677330401837  1.0000
  H   H119      1.0  0.04193293873035367  0.39969537000418226  0.2557399811613603  1.0000
  H   H120      1.0  0.00373303392578903  0.37139381746107775  0.17290532021815372  1.0000
  H   H121      1.0  0.04826738892477227  0.48064155653851487  0.24221980156802786  1.0000
  H   H122      1.0  0.007983265106411315  0.48446162929006215  0.26041643574815226  1.0000
  H   H123      1.0  0.48120605616236234  0.45801631209628313  0.17272040596801694  1.0000
  H   H124      1.0  0.01843516295419859  0.45132155438782595  0.15591978504586945  1.0000
  H   H125      1.0  0.10431034415059999  0.46182684549364517  0.20957395001610613  1.0000
  H   H126      1.0  0.139655029714811  0.49579042472692636  0.23659644309164676  1.0000
  H   H127      1.0  0.11680733999543357  0.051529986053071644  0.21830712846006492  1.0000
  H   H128      1.0  0.08093107278189156  0.015529852372729495  0.19197940378087147  1.0000
  H   H129      1.0  0.11308686582615651  0.003686214734446861  0.3372742125411052  1.0000
  H   H130      1.0  0.14572573400786656  0.016346985036398143  0.2933660111891875  1.0000
  H   H131      1.0  0.11734841773524322  0.06650325924141365  0.2746490265225672  1.0000
  H   H132      1.0  0.08477412640414658  0.05443711210241337  0.31781801752671596  1.0000
  H   H133      1.0  0.1678207220166061  0.06704760864406858  0.19576389276978148  1.0000
  H   H134      1.0  0.20048028912310442  0.10837624215962492  0.18381436767066617  1.0000
  H   H135      1.0  0.2064502344659031  0.13919315484449915  0.2749058518699793  1.0000
  H   H136      1.0  0.1708357613322516  0.09752003037801148  0.28975705674207397  1.0000
  H   H137      1.0  0.19029001490512296  0.0665063448866772  0.2945943063289848  1.0000
  H   H138      1.0  0.2364044169995019  0.07488652107900048  0.28834563396325236  1.0000
  H   H139      1.0  0.22419453921315097  0.04182795230441774  0.19721707758335622  1.0000
  H   H140      1.0  0.1811131684661793  0.03448259531027086  0.20294964266398477  1.0000
  C   C221      1.0  0.37018342968511164  0.2809686747994063  0.1519678012651689  1.0000
  C   C222      1.0  0.3462256296688981  0.259027126823652  0.1569792454355419  1.0000
  C   C223      1.0  0.34306999663415766  0.24394417213227218  0.17921540734087602  1.0000
  C   C224      1.0  0.364243387768917  0.24934005807034734  0.1954416327903765  1.0000
  C   C225      1.0  0.3888231325365866  0.2715183477826367  0.1893030603344477  1.0000
  C   C226      1.0  0.3914381712551926  0.2870596675411434  0.16870276422893452  1.0000
  H   H141      1.0  0.32870757835222847  0.254271797834033  0.1459589814412805  1.0000
  H   H142      1.0  0.3227504291229752  0.22792540363827407  0.1830307153714755  1.0000
  H   H143      1.0  0.4055423749486193  0.2758627655732158  0.20138300804477052  1.0000
  H   H144      1.0  0.41046319995249564  0.3052631106689915  0.1667948868872457  1.0000
  C   C227      1.0  0.4001519299745682  0.22625348672713697  0.20230668598989812  1.0000
  C   C228      1.0  0.38056672803013586  0.22374664488530424  0.22520233072210888  1.0000
  C   C229      1.0  0.37889670977603074  0.2109509459351319  0.24963647094851302  1.0000
  C   C230      1.0  0.39853355028825155  0.2048709487948215  0.2526536104646333  1.0000
  C   C231      1.0  0.4196534734221878  0.210527292349304  0.2310914476014643  1.0000
  C   C232      1.0  0.4201214984005947  0.22114446268687557  0.20579884073553636  1.0000
  C   C233      1.0  0.3602165841595739  0.235441065891292  0.22512863301372105  1.0000
  C   C234      1.0  0.3323160577695217  0.20915285973272937  0.22608223669498187  1.0000
  C   C235      1.0  0.3123514434386158  0.20594902754304245  0.24821164858634814  1.0000
  C   C236      1.0  0.2874051564162877  0.18404769471886145  0.24675779379360627  1.0000
  C   C237      1.0  0.2823276279957399  0.1657758586136273  0.22282457465785035  1.0000
  C   C238      1.0  0.3019220809293296  0.1686818223010033  0.20020674795362284  1.0000
  C   C239      1.0  0.3266801544691241  0.18978906578962737  0.20270845016380634  1.0000
  C   C240      1.0  0.3818391925001143  0.26773036253942883  0.2719646433261374  1.0000
  C   C241      1.0  0.38605098246813435  0.2890155018157603  0.29186079132696313  1.0000
  C   C242      1.0  0.3755021846533343  0.30518976373383805  0.2881223075741983  1.0000
  C   C243      1.0  0.354916950978417  0.29428363143107333  0.2691261649212604  1.0000
  C   C244      1.0  0.34841580725016524  0.271064768231518  0.2514945465054428  1.0000
  C   C245      1.0  0.3629766068938842  0.25826102437277254  0.2509518633800414  1.0000
  C   C246      1.0  0.3888614793948269  0.3354292578174589  0.30289311494623344  1.0000
  C   C247      1.0  0.3759606753519859  0.3492227668868321  0.399006093003427  1.0000
  C   C248      1.0  0.394338348414546  0.3693312948532931  0.3825469381301432  1.0000
  C   C249      1.0  0.3994735592761683  0.3636468971237453  0.353179517969535  1.0000
  C   C250      1.0  0.3858667200057131  0.3387629192291468  0.3386342702504444  1.0000
  C   C251      1.0  0.36699798125543165  0.31863044454418554  0.35545074734621473  1.0000
  C   C252      1.0  0.36172967108929793  0.324005417307791  0.3853005525071797  1.0000
  C   C253      1.0  0.37674915984314816  0.3530122859440507  0.29557247591304153  1.0000
  C   C254      1.0  0.3922536901186195  0.37842022566244016  0.2865590228508199  1.0000
  C   C255      1.0  0.3798750548159463  0.3924166191900492  0.28128628680525364  1.0000
  C   C256      1.0  0.35283618192117217  0.3820527497908397  0.2855674536834199  1.0000
  C   C257      1.0  0.33780941597418784  0.3587495825357494  0.2976002795256523  1.0000
  C   C258      1.0  0.34981882292353306  0.3449297032124977  0.30290204800179565  1.0000
  C   C259      1.0  0.438581270296386  0.34908344575663397  0.3070291196715145  1.0000
  C   C260      1.0  0.46150709761596886  0.349428266121776  0.29455410757895506  1.0000
  C   C261      1.0  0.4674473310783952  0.3486886290463124  0.26451000845951306  1.0000
  C   C262      1.0  0.44888403345545025  0.3469702815629397  0.24665283039075084  1.0000
  C   C263      1.0  0.42538099209987734  0.3465354855971937  0.25934000255291173  1.0000
  C   C264      1.0  0.4193091250550891  0.34619733187339263  0.2899446509088794  1.0000
  H   H145      1.0  0.40156741096210524  0.2330210652416258  0.18110005873810317  1.0000
  H   H146      1.0  0.3633365704334236  0.20734847924322908  0.2670581625586198  1.0000
  H   H147      1.0  0.39963772755702653  0.19685973464051396  0.2721946695068631  1.0000
  H   H148      1.0  0.4357637868347122  0.22545925380907555  0.188015360375162  1.0000
  H   H149      1.0  0.3163732690973061  0.22144550509485292  0.2671430265864604  1.0000
  H   H150      1.0  0.27178107933088663  0.18202975586512243  0.26400752408414146  1.0000
  H   H151      1.0  0.29785899764495094  0.1541174387272059  0.18093926373798427  1.0000
  H   H152      1.0  0.3416549838277712  0.19106132542617624  0.18485417533810183  1.0000
  H   H153      1.0  0.3949216437750435  0.25947976016327323  0.27205844040954014  1.0000
  H   H154      1.0  0.40166863950072274  0.29620405098664176  0.30705591883820105  1.0000
  H   H155      1.0  0.34513809572160603  0.3047094711922391  0.2645189415150752  1.0000
  H   H156      1.0  0.3334495209536798  0.2649116177486956  0.23617212295244405  1.0000
  H   H157      1.0  0.40453280956676224  0.3896255231017606  0.3916162227896283  1.0000
  H   H158      1.0  0.4149992534068439  0.3800638669161255  0.34054594414074707  1.0000
  H   H159      1.0  0.3565924984649921  0.29883200720740144  0.34633456414502817  1.0000
  H   H160      1.0  0.345986315608128  0.3080323362371346  0.39785372883590814  1.0000
  H   H161      1.0  0.41383651369189267  0.3871484615065298  0.2826128455562347  1.0000
  H   H162      1.0  0.3920645304611963  0.41189790752633354  0.2735547272162023  1.0000
  H   H163      1.0  0.3166037313165555  0.35053359413193225  0.30223430209852403  1.0000
  H   H164      1.0  0.33736721855177215  0.326657372019593  0.31216785988364837  1.0000
  H   H165      1.0  0.43576253001208093  0.3489805911994395  0.3304292587165984  1.0000
  H   H166      1.0  0.4757420122114079  0.3503744447953073  0.30875543265890243  1.0000
  H   H167      1.0  0.4516959725554692  0.3453427093780552  0.22306420387330536  1.0000
  H   H168      1.0  0.4104141100532046  0.3436259085616582  0.24509401219515356  1.0000
  C   C265      1.0  0.4206344460245439  0.055852229726740345  0.41266250169408253  1.0000
  C   C266      1.0  0.44127887524879533  0.06014771208796194  0.3913437645949824  1.0000
  C   C267      1.0  0.43610098335422864  0.05012161020808327  0.36232696686518906  1.0000
  C   C268      1.0  0.40973117705781287  0.03398438994242497  0.3547807681790526  1.0000
  C   C269      1.0  0.38926071560853903  0.030469465040949485  0.3767516183341905  1.0000
  C   C270      1.0  0.39472338489669445  0.04155931377524712  0.4052949641191892  1.0000
  H   H169      1.0  0.46167580901716015  0.07202558413075795  0.39595098800116757  1.0000
  H   H170      1.0  0.45289173307779595  0.054854515043923455  0.3456176864361647  1.0000
  H   H171      1.0  0.3686338669358164  0.018505862258632693  0.372155561247458  1.0000
  H   H172      1.0  0.3780123843841639  0.038876752642463236  0.42187471524256226  1.0000
  C   C271      1.0  0.37663052414752735  0.47427835388490447  0.3392394847647809  1.0000
  C   C272      1.0  0.38013847514851734  0.4917000868115382  0.3188229862774592  1.0000
  C   C273      1.0  0.364978531214838  0.48069283341521174  0.2937702319533753  1.0000
  C   C274      1.0  0.3474769358465336  0.45451963774620524  0.28994018438109825  1.0000
  C   C275      1.0  0.3447295922799935  0.4386506087582992  0.3099479955764511  1.0000
  C   C276      1.0  0.35917635538573794  0.44829301673447486  0.3348153889976201  1.0000
  C   C277      1.0  0.402431919764634  0.022118763501131792  0.3220545191270714  1.0000
  C   C278      1.0  0.42443888876916813  0.02012723351073937  0.29765834438680644  1.0000
  C   C279      1.0  0.425129143685746  0.02212749204607067  0.26780853922584147  1.0000
  C   C280      1.0  0.4435781609147741  0.01934043935526958  0.2472781442801022  1.0000
  C   C281      1.0  0.46108634498908585  0.013135986438040287  0.25645015907855223  1.0000
  C   C282      1.0  0.4598669981497649  0.009162914722550944  0.2858265122947226  1.0000
  C   C283      1.0  0.44177101484467146  0.012457185458057764  0.30579412474004564  1.0000
  C   C284      1.0  0.3699215916781681  0.03611973128671029  0.3066025662684213  1.0000
  C   C285      1.0  0.3659055087874169  0.04752660077832527  0.28620170062833344  1.0000
  C   C286      1.0  0.38696096309900774  0.06826021482200186  0.2732085713131685  1.0000
  C   C287      1.0  0.4115672124601837  0.07901310506749018  0.2850002046552226  1.0000
  C   C288      1.0  0.4155206622797873  0.06729906598536177  0.3060688161985821  1.0000
  C   C289      1.0  0.3953016451949123  0.04296890803741423  0.31327109224557537  1.0000
  C   C290      1.0  0.3844820062043501  0.07569910758006995  0.24215727017909272  1.0000
  C   C291      1.0  0.4107554971038359  0.026299768689406863  0.18041578668204153  1.0000
  C   C292      1.0  0.3848844550420837  0.015972447520510677  0.19300849178163257  1.0000
  C   C293      1.0  0.37679856441001575  0.030878002047194306  0.21271771559482006  1.0000
  C   C294      1.0  0.39375840693150016  0.05684180116915745  0.22074451267020087  1.0000
  C   C295      1.0  0.42016718151342974  0.06694508009774285  0.20937295626595745  1.0000
  C   C296      1.0  0.42876559160145605  0.051978004740243375  0.1891974269524251  1.0000
  C   C297      1.0  0.40133939010150266  0.1061993245089362  0.2359934618412008  1.0000
  C   C298      1.0  0.409340355789512  0.1264982099165833  0.2580692753991941  1.0000
  C   C299      1.0  0.42399646096741217  0.1523368108538699  0.25236328615886305  1.0000
  C   C300      1.0  0.4295490687262303  0.15778566803330865  0.22299966254686873  1.0000
  C   C301      1.0  0.419381689581043  0.1380598998813939  0.2000548860090661  1.0000
  C   C302      1.0  0.4062250092725473  0.11263018739410564  0.2068049261182249  1.0000
  C   C303      1.0  0.34326288772728214  0.06022167522039852  0.21168639433016842  1.0000
  C   C304      1.0  0.3162424216919672  0.05183844668298786  0.2112339350659449  1.0000
  C   C305      1.0  0.3023316042861989  0.05731899203219294  0.23572100364655485  1.0000
  C   C306      1.0  0.3155654978749828  0.07067031616925065  0.26114224651257795  1.0000
  C   C307      1.0  0.34202776284019537  0.0778241023605437  0.2618792235964563  1.0000
  C   C308      1.0  0.3559732657490405  0.07139929750056853  0.23799446628712514  1.0000
  H   H173      1.0  0.38898472240818954  0.48124094636671655  0.35830485859832556  1.0000
  H   H174      1.0  0.367903993999228  0.4921960870943095  0.27641107173220364  1.0000
  H   H175      1.0  0.33666237040499064  0.4464114100900211  0.26973361269948737  1.0000
  H   H176      1.0  0.35800456415808934  0.4352386255262213  0.34974029157810255  1.0000
  H   H177      1.0  0.41153058730943354  0.026535968475895347  0.2595007975530306  1.0000
  H   H178      1.0  0.4426715507151698  0.020482859651171963  0.22445418731877778  1.0000
  H   H179      1.0  0.47272459182963605  0.0032892446664824207  0.29388636167568344  1.0000
  H   H180      1.0  0.4401447163685486  0.007740038908568127  0.32903793531279163  1.0000
  H   H181      1.0  0.3532538496454189  0.018705807388955248  0.31421576287127406  1.0000
  H   H182      1.0  0.3462427840994837  0.038826865751923845  0.27736020888568336  1.0000
  H   H183      1.0  0.4285119345070423  0.09537813659033793  0.27521627555076444  1.0000
  H   H184      1.0  0.4356030696134488  0.07412892206131658  0.3110355950911443  1.0000
  H   H185      1.0  0.37093056347061565  0.4956842719033529  0.18706957311751807  1.0000
  H   H186      1.0  0.3566305436732488  0.022669745072110507  0.2224069543103193  1.0000
  H   H187      1.0  0.4349012414360052  0.08745033025475596  0.21602026623615142  1.0000
  H   H188      1.0  0.449364417787368  0.059382740559755814  0.1793855820493352  1.0000
  H   H189      1.0  0.40455520927550964  0.12277345976512329  0.2814202826386861  1.0000
  H   H190      1.0  0.43250829504773525  0.16767283624190263  0.2713728283951442  1.0000
  H   H191      1.0  0.4226629789689981  0.14234584420970117  0.17715388144351804  1.0000
  H   H192      1.0  0.399353107621413  0.09755451167432931  0.18836263291014105  1.0000
  H   H193      1.0  0.35180042386821614  0.05393911829854558  0.19226928143386363  1.0000
  H   H194      1.0  0.3062518049499177  0.040455952713377825  0.19131880432204956  1.0000
  H   H195      1.0  0.3047788618628137  0.07528509772306465  0.280506877707455  1.0000
  H   H196      1.0  0.35065592890697983  0.08683786353498366  0.28293220229258204  1.0000
  C   C309      1.0  0.4319348743603055  0.4723101455721321  0.14497835526694414  1.0000
  C   C310      1.0  0.45714029467253914  0.4782261440821949  0.132950889258049  1.0000
  C   C311      1.0  0.4618784720227992  0.4620462002123667  0.11080137799166781  1.0000
  C   C312      1.0  0.44168667451810667  0.43797896377369605  0.10093258485936914  1.0000
  C   C313      1.0  0.41581944450339564  0.43160729732419145  0.1132959337574016  1.0000
  C   C314      1.0  0.41118725846011067  0.4483646011579937  0.1351799099471975  1.0000
  H   H197      1.0  0.47394486140747283  0.4974883444834436  0.13825734758836236  1.0000
  H   H198      1.0  0.4819387192234707  0.4682643434284764  0.1000475423795479  1.0000
  H   H199      1.0  0.3991211855874929  0.4135499500368391  0.10516774650139023  1.0000
  H   H200      1.0  0.39120062466524463  0.442838170215555  0.14345995914776563  1.0000
  C   C315      1.0  0.42722562064486946  0.3836290586610297  0.1144960897721781  1.0000
  C   C316      1.0  0.42951310597129133  0.38880510770334553  0.08497122450728678  1.0000
  C   C317      1.0  0.42148022815742975  0.3678696368913986  0.06313280690085792  1.0000
  C   C318      1.0  0.41063738380751924  0.34220871903749206  0.07008652067683402  1.0000
  C   C319      1.0  0.40637870351385497  0.3373541745481179  0.09970920290013102  1.0000
  C   C320      1.0  0.41510568362474054  0.35838179903909645  0.12178613309006961  1.0000
  C   C321      1.0  0.44545974830713836  0.41806513138014234  0.0757643707921443  1.0000
  C   C322      1.0  0.4752658300770686  0.421590463168259  0.07014391555882092  1.0000
  C   C323      1.0  0.4855495088473451  0.4163274756691022  0.042157992440901085  1.0000
  C   C324      1.0  0.009658442177099569  0.41607092171088206  0.03766868536813648  1.0000
  C   C325      1.0  0.024144371274947004  0.42055241126900506  0.06172607397620642  1.0000
  C   C326      1.0  0.013879164581371369  0.4251402292397403  0.08959184749681517  1.0000
  C   C327      1.0  0.49013385713326474  0.42578413883219784  0.0936391916456418  1.0000
  C   C328      1.0  0.4120125275253055  0.4102836879999123  0.03573557214448458  1.0000
  C   C329      1.0  0.40595256018069575  0.41713803956450335  0.011460848873048102  1.0000
  C   C330      1.0  0.42472112343405505  0.4383237324176372  0.9966967412926846  1.0000
  C   C331      1.0  0.4488889685602333  0.4533794977919196  0.009551408246635917  1.0000
  C   C332      1.0  0.45541099356407005  0.446372920404101  0.0333794787399643  1.0000
  C   C333      1.0  0.43717020857130734  0.42435935956340504  0.04671787065260678  1.0000
  C   C334      1.0  0.42291897683900975  0.445808322319308  0.9653528825889479  1.0000
  C   C335      1.0  0.46074664233932305  0.4009350705220008  0.916341673247145  1.0000
  C   C336      1.0  0.4338172848749202  0.3893711327823597  0.9244149222114492  1.0000
  C   C337      1.0  0.4216479827041931  0.4035718323832275  0.938705577847018  1.0000
  C   C338      1.0  0.4369266541816751  0.4304701624398395  0.945720259727206  1.0000
  C   C339      1.0  0.4641942739030143  0.4425115482415282  0.9369301330540384  1.0000
  C   C340      1.0  0.4754226259430123  0.4276765030477205  0.9224317838766491  1.0000
  C   C341      1.0  0.43592305964553046  0.477125040968489  0.9664092164091737  1.0000
  C   C342      1.0  0.4281309921394917  0.4893263546814901  0.9912967092053574  1.0000
  C   C343      1.0  0.4414030972241053  0.01595177663181626  0.9976838439323034  1.0000
  C   C344      1.0  0.45911418716560415  0.0319887155433343  0.9765460012083371  1.0000
  C   C345      1.0  0.4632545148790645  0.019880848287963666  0.9491215206324991  1.0000
  C   C346      1.0  0.4519399044652273  0.49273544386120494  0.9446706256986518  1.0000
  C   C347      1.0  0.39515147325481476  0.4366673988895025  0.9220811614458342  1.0000
  C   C348      1.0  0.3720303361989619  0.4307140947614195  0.9094118553947977  1.0000
  C   C349      1.0  0.3486378873542845  0.42506342432525007  0.9266861515881288  1.0000
  C   C350      1.0  0.34920552035209695  0.4251637952641684  0.95742926230531  1.0000
  C   C351      1.0  0.3723508492712979  0.43212217735838443  0.9697680453005465  1.0000
  C   C352      1.0  0.3955936640495571  0.43780903187545817  0.952504915426668  1.0000
  H   H201      1.0  0.43489664346984236  0.3994490559240599  0.13205110723655017  1.0000
  H   H202      1.0  0.42491453351912745  0.37148860530088845  0.039646240543210136  1.0000
  H   H203      1.0  0.40373316100772955  0.3261714130312571  0.05216346132330085  1.0000
  H   H204      1.0  0.4132302481897367  0.35480053598968037  0.14532183125330927  1.0000
  H   H205      1.0  0.4740532458463422  0.40972460108120995  0.02343721122566684  1.0000
  H   H206      1.0  0.017641586235179165  0.4129808625894012  0.014873276097794095  1.0000
  H   H207      1.0  0.02369937518126142  0.42701239635067517  0.10895893528197187  1.0000
  H   H208      1.0  0.48198056266390776  0.42834133492744697  0.1157954027036946  1.0000
  H   H209      1.0  0.39618638164120246  0.3935361390315757  0.046976929263909485  1.0000
  H   H210      1.0  0.38650614218054796  0.40509266996502197  0.003409932547649319  1.0000
  H   H211      1.0  0.46437126270186874  0.4707701600373021  0.00055582129553855  1.0000
  H   H212      1.0  0.4746281447603405  0.459503917775384  0.04127562987774852  1.0000
  H   H213      1.0  0.42164969741237096  0.36853465722096007  0.9215228454731991  1.0000
  H   H214      1.0  0.4007707149292262  0.3934348891238924  0.9453808036158438  1.0000
  H   H215      1.0  0.47739305995805376  0.46254109290446654  0.9425311588915141  1.0000
  H   H216      1.0  0.4962846993801363  0.43662045102907704  0.9175342361646937  1.0000
  H   H217      1.0  0.41445653458578824  0.47798849033183716  0.008349912273525106  1.0000
  H   H218      1.0  0.4368871786814074  0.024831666152388483  0.019107544434258772  1.0000
  H   H219      1.0  0.4755889297413927  0.03173936289724182  0.9319856868003815  1.0000
  H   H220      1.0  0.4571366702581041  0.48434786806245567  0.9234970507524369  1.0000
  H   H221      1.0  0.41330885485969393  0.4439181509773574  0.9076051449073504  1.0000
  H   H222      1.0  0.37387713976362486  0.43414591716713585  0.8864204036416827  1.0000
  H   H223      1.0  0.3320746525290358  0.4232325005164481  0.9728253835666965  1.0000
  H   H224      1.0  0.37145395384042207  0.43431163618998414  0.9941173214991101  1.0000
  C   C353      1.0  0.4275774719521571  0.491755579657373  0.16910542170839896  1.0000
  C   C354      1.0  0.4185373317822038  0.00869734397012851  0.156835199914602  1.0000
  H   H225      1.0  0.44673747686077747  0.004358833870668353  0.17943292724381468  1.0000
  H   H226      1.0  0.4136237097460645  0.4809555912536401  0.1867209606242047  1.0000
  H   H227      1.0  0.4021899430193073  0.49569694024604954  0.1419464762091463  1.0000
  H   H228      1.0  0.4354010521596707  0.021803011122439268  0.1416976906117401  1.0000
  C   C355      1.0  0.3955383278404723  0.3093354182220134  0.10849821294135334  1.0000
  C   C356      1.0  0.3715182998783244  0.30013326446770827  0.13228113341727585  1.0000
  H   H229      1.0  0.38880472794074816  0.295350059106507  0.08870591171143774  1.0000
  H   H230      1.0  0.4116596940780584  0.30654476392685454  0.11580679234953634  1.0000
  H   H231      1.0  0.3721252615939634  0.3174079880896218  0.14613719589974564  1.0000
  H   H232      1.0  0.35316270841064634  0.2928791781786489  0.12063868210310988  1.0000
  C   C357      1.0  0.3393964661187846  0.3967968491907649  0.2766611972879442  1.0000
  C   C358      1.0  0.3270915354379497  0.4092012893083115  0.3021673041818078  1.0000
  H   H233      1.0  0.35299424820285796  0.4116285971160508  0.26094348602631984  1.0000
  H   H234      1.0  0.3223811242905832  0.3825611881850332  0.26405888915362385  1.0000
  H   H235      1.0  0.32145265030281944  0.39848686906247754  0.32223318023831465  1.0000
  H   H236      1.0  0.30751619288085574  0.4048826988564135  0.2956841391075686  1.0000
  C   C359      1.0  0.44487633517538827  0.20826248063363445  0.23630165225809538  1.0000
  C   C360      1.0  0.44781288751761333  0.18646974793721607  0.21529467879811479  1.0000
  H   H237      1.0  0.4454375084601387  0.2076594063498933  0.2600055151922928  1.0000
  H   H238      1.0  0.4626155472201625  0.22726122847275076  0.23188648954649674  1.0000
  H   H239      1.0  0.46872030143483945  0.19086051762182857  0.21486566880474195  1.0000
  H   H240      1.0  0.4462129765700777  0.18952479537463626  0.1922951872949939  1.0000
  C   C361      1.0  0.07731329372390339  0.4454673545978408  0.05880898468238236  1.0000
  C   C362      1.0  0.05055852483434352  0.4191101891892565  0.056874754826785195  1.0000
  H   H241      1.0  0.07597828131025068  0.45878019894849564  0.04574751749216691  1.0000
  H   H242      1.0  0.09355539179250359  0.44168231491933285  0.048123933598091105  1.0000
  H   H243      1.0  0.050338495237054796  0.40646113387945193  0.07313358592908754  1.0000
  H   H244      1.0  0.05057718058650049  0.40880063766441777  0.034002559365425115  1.0000
  C   C363      1.0  0.46934746029770646  0.47810203456830025  0.22717206947356564  1.0000
  C   C364      1.0  0.47993444223303666  0.007680521440095682  0.23403042288141568  1.0000
  H   H245      1.0  0.45371715483010955  0.4699761568684016  0.2109346777046125  1.0000
  H   H246      1.0  0.45956463210424975  0.46765822676793  0.24778286191936436  1.0000
  H   H247      1.0  0.4998107278131526  0.018106819589558874  0.24279151712400626  1.0000
  H   H248      1.0  0.48205250602833066  0.016458520348733297  0.2128546146713102  1.0000
  C   C365      1.0  0.263312780509014  0.06775635061447523  0.23704086260586432  1.0000
  C   C366      1.0  0.2716980741782066  0.04645035472844903  0.23600239489676297  1.0000
  H   H249      1.0  0.26916481212894555  0.0764288624583881  0.21573954496511047  1.0000
  H   H250      1.0  0.274892923767521  0.085389441593892  0.2526290445618373  1.0000
  H   H251      1.0  0.26181458699917676  0.03471360962853017  0.2555702531056792  1.0000
  H   H252      1.0  0.26350492168163053  0.03251863433890635  0.21628647129190384  1.0000
  C   C367      1.0  0.23244213259474006  0.14970795677235335  0.22124521043446008  1.0000
  C   C368      1.0  0.25468677620437047  0.14214780299225224  0.22311802553306737  1.0000
  H   H253      1.0  0.23252600968752607  0.15553807546414047  0.19940254962663922  1.0000
  H   H254      1.0  0.2342009138561205  0.16714250324211094  0.2370609619808792  1.0000
  H   H255      1.0  0.2528506887646238  0.12730925370639212  0.2045111407762507  1.0000
  H   H256      1.0  0.25262153358802963  0.13366323193321128  0.24335876615220353  1.0000
  C   C369      1.0  0.005277380003446167  0.353361473406511  0.22240092449781482  1.0000
  C   C370      1.0  0.49248672872091004  0.3458303336152312  0.2536630457431576  1.0000
  H   H257      1.0  0.48962178121138505  0.34130921071394543  0.20603601336071178  1.0000
  H   H258      1.0  0.019647711446513397  0.3457612405954076  0.2179897816612191  1.0000
  H   H259      1.0  0.00779094852868829  0.35672921390985285  0.2701467665192374  1.0000
  H   H260      1.0  0.4868181956004925  0.3250026804180317  0.2545384851882495  1.0000
  C   C371      1.0  0.3251342567986484  0.42236609604219044  0.9121766360912869  1.0000
  C   C372      1.0  0.29780418111523815  0.3989766373911949  0.9197875994302491  1.0000
  H   H261      1.0  0.3227784351676679  0.4405491257383521  0.9166409306084774  1.0000
  H   H262      1.0  0.32961320229107977  0.42056324232149017  0.8875906339203261  1.0000
  H   H263      1.0  0.2876775511138039  0.40753071693557874  0.9378435379852694  1.0000
  H   H264      1.0  0.299566930700248  0.3847569693277641  0.9317132286057356  1.0000
  C   C373      1.0  0.4734206921106997  0.38407869707221887  0.9037482981683868  1.0000
  C   C374      1.0  0.47845840931604205  0.38346789324824  0.8695838271708977  1.0000
  H   H265      1.0  0.49252916638862565  0.3914593757659522  0.9139565474120478  1.0000
  H   H266      1.0  0.46006698891876296  0.3636828237225403  0.9104726557428046  1.0000
  H   H267      1.0  0.4933182250836807  0.403474646934988  0.8641145639029638  1.0000
  H   H268      1.0  0.4604739540014966  0.3786528419747744  0.8595118070245598  1.0000
  C   C375      1.0  0.11625218567858077  0.3215637627839723  0.8015050107316596  1.0000
  C   C376      1.0  0.13685803366769264  0.35007583428976735  0.8107842221968555  1.0000
  H   H269      1.0  0.12246587850603358  0.31464518391721225  0.7799964462018634  1.0000
  H   H270      1.0  0.1146192810379336  0.30813185339872823  0.816595174840042  1.0000
  H   H271      1.0  0.1307833212458592  0.3580712136916239  0.8325965106157649  1.0000
  H   H272      1.0  0.1385868124834181  0.36363156449399375  0.795446165796623  1.0000
  C   C377      1.0  0.3967662755791644  0.37762256881211403  0.8195475497033365  1.0000
  C   C378      1.0  0.40754769873903524  0.4073512223521061  0.8221202697052393  1.0000
  H   H273      1.0  0.37555851793195266  0.36704576846827913  0.8154405774086324  1.0000
  H   H274      1.0  0.3971928040510962  0.3729309377585876  0.8420499166644232  1.0000
  H   H275      1.0  0.4062427813293311  0.4151639022082505  0.8457995667366407  1.0000
  H   H276      1.0  0.42926048142505097  0.4170923687051701  0.8151971516445635  1.0000
  C   C379      1.0  0.45726485982998893  0.07470579750441149  0.9751993430823412  1.0000
  C   C380      1.0  0.4720992946950928  0.06156488026898401  0.9841502647556276  1.0000
  H   H277      1.0  0.4659910880080593  0.09526149020227051  0.9855929532289168  1.0000
  H   H278      1.0  0.436384623312043  0.06537312974946764  0.984824710450571  1.0000
  H   H279      1.0  0.49332355290687147  0.0704346470266972  0.9745606296096465  1.0000
  H   H280      1.0  0.4737922456827627  0.0660409157925155  0.00851517380142508  1.0000
  C   C381      1.0  0.46696394213420384  0.1848207035648647  0.8104246667104785  1.0000
  C   C382      1.0  0.45322285757803066  0.19552700317040655  0.7934161289201216  1.0000
  H   H281      1.0  0.45050042875707896  0.16768317380231293  0.8204721209540204  1.0000
  H   H282      1.0  0.47622847198766144  0.19927970155185742  0.8303677132530056  1.0000
  H   H283      1.0  0.43256288955479855  0.18940209433676244  0.8037159419832947  1.0000
  H   H284      1.0  0.45045906875385083  0.18665383296538549  0.7696497345969892  1.0000
  C   C383      1.0  0.016160271937382738  0.47741668815864124  0.810286204349265  1.0000
  C   C384      1.0  0.4890249290650104  0.4711728168048487  0.8282505790847732  1.0000
  H   H285      1.0  0.022594418230927515  0.49358986580057895  0.7960134148248204  1.0000
  H   H286      1.0  0.032837375547886495  0.4851369174179754  0.8254210337354582  1.0000
  H   H287      1.0  0.48545146534970707  0.4614789384711759  0.8482829561829218  1.0000
  H   H288      1.0  0.4729070471890495  0.4564316247152004  0.8139666232408758  1.0000
  C   C385      1.0  0.1425890087418415  0.2329138815716814  0.7915826192659877  1.0000
  C   C386      1.0  0.17024920247338557  0.23501760394075538  0.7897156106534959  1.0000
  H   H289      1.0  0.13857605227976047  0.23802892606003748  0.815715268867169  1.0000
  H   H290      1.0  0.14373555152047882  0.24913610679226134  0.7806396262023392  1.0000
  H   H291      1.0  0.17377682157599358  0.22708868630697757  0.7670948807062107  1.0000
  H   H292      1.0  0.17113282930768164  0.22352871673891284  0.805799577193169  1.0000
  C   C387      1.0  0.3817703606303435  0.046784426071898026  0.7754249550179271  1.0000
  C   C388      1.0  0.37258779917700907  0.026851042964296457  0.7467967452050878  1.0000
  H   H293      1.0  0.3643651370318584  0.0414983531003067  0.7917076820438581  1.0000
  H   H294      1.0  0.3862082981394601  0.0659989077306737  0.7691383171660553  1.0000
  H   H295      1.0  0.3893803609908631  0.03471194185921458  0.7292566906087822  1.0000
  H   H296      1.0  0.3562648472280513  0.02763461742008588  0.7377944584623187  1.0000
  C   C389      1.0  0.3702732127215107  0.3541507421791182  0.4330856999730758  1.0000
  C   C390      1.0  0.39392712380779804  0.3643515854806211  0.45225157068169475  1.0000
  H   H297      1.0  0.3623186468479859  0.36804701533618855  0.4361743039336934  1.0000
  H   H298      1.0  0.35360240350802985  0.3364790282570116  0.44238277754939614  1.0000
  H   H299      1.0  0.40418310996177564  0.35261622394766434  0.4456455760934758  1.0000
  H   H300      1.0  0.38612993753323266  0.3586075614877575  0.4751224261847205  1.0000
  C   C391      1.0  0.41960745158045804  0.04743579303416819  0.4661179061780611  1.0000
  C   C392      1.0  0.42695588057479017  0.06806119500445193  0.44457137616212583  1.0000
  H   H301      1.0  0.39817712317417114  0.033422975375070475  0.4645568547185732  1.0000
  H   H302      1.0  0.4214495607433168  0.05678239774921779  0.4890736257089273  1.0000
  H   H303      1.0  0.4486678028092573  0.08280554144165661  0.44512522560697987  1.0000
  H   H304      1.0  0.41607048072085767  0.07896773109087213  0.45229176943172456  1.0000
  C   C393      1.0  0.05048522611769687  0.019493213266124167  0.35854828436239444  1.0000
  C   C394      1.0  0.07766588186774884  0.02094407250967164  0.359240596168462  1.0000
  H   H305      1.0  0.04172391136529925  0.008547817257253482  0.33690125747138494  1.0000
  H   H306      1.0  0.054377188945460696  0.04008140151972429  0.3589860040849404  1.0000
  H   H307      1.0  0.07391229690227041  0.0021001079623046964  0.36486842117262425  1.0000
  H   H308      1.0  0.08812177107840152  0.03527921535824191  0.37762035798761073  1.0000
  C   C395      1.0  0.3406566391564211  0.36049238846433174  0.6231811223358872  1.0000
  C   C396      1.0  0.3513430391839668  0.3788563991295207  0.5977353135670682  1.0000
  H   H309      1.0  0.35412740177735097  0.35149266655935557  0.6214503428207184  1.0000
  H   H310      1.0  0.320902495028153  0.3435153321464794  0.6193220423330332  1.0000
  H   H311      1.0  0.34486489448286767  0.3652720814195098  0.5776292387605316  1.0000
  H   H312      1.0  0.34070127424986746  0.39045489298602326  0.599345496832148  1.0000
  C   C397      1.0  0.013466534249647864  0.04942321545427491  0.6657225661867942  1.0000
  C   C398      1.0  0.02869782605360521  0.0757923736628986  0.6511862515232657  1.0000
  H   H313      1.0  0.49860098320959906  0.05044880818305713  0.6828271343244442  1.0000
  H   H314      1.0  0.027578920710582537  0.04807074024098025  0.6788273586964861  1.0000
  H   H315      1.0  0.04674013170270061  0.07675842150917893  0.6376727717216049  1.0000
  H   H316      1.0  0.0163858248511811  0.07643769024196666  0.6352496804003684  1.0000
  C   C399      1.0  0.4957961865664113  0.36084247636279515  0.6108490391323224  1.0000
  C   C400      1.0  0.476951782396264  0.3625139462666295  0.5921231214101399  1.0000
  H   H317      1.0  0.016400554304592994  0.3747441885487158  0.6031331123905047  1.0000
  H   H318      1.0  0.49384829005105985  0.3409124851985638  0.6040733164884223  1.0000
  H   H319      1.0  0.45605831811247644  0.3495812191645342  0.5980256378728385  1.0000
  H   H320      1.0  0.48014515803498925  0.3534533293929016  0.5699200118103858  1.0000
  C   C401      1.0  0.4136268807778593  0.8941588679886048  0.4539332183912718  1.0000
  C   C402      1.0  0.4393547852495244  0.9035351096659414  0.44238277754939614  1.0000
  C   C403      1.0  0.45619088400754865  0.9299208941219611  0.44309295546658795  1.0000
  C   C404      1.0  0.4477830658473331  0.9484432399009495  0.4544022038082854  1.0000
  C   C405      1.0  0.4212633059258318  0.9383210163982131  0.4668303173591435  1.0000
  C   C406      1.0  0.40520382249627973  0.9112833393318193  0.46808987819340836  1.0000
  H   H321      1.0  0.445172347393326  0.8895171512896854  0.4308144705963961  1.0000
  H   H322      1.0  0.4761095195500974  0.9353366304334008  0.43292043844517586  1.0000
  H   H323      1.0  0.41325107539047334  0.9510192230515339  0.4764221857690151  1.0000
  H   H324      1.0  0.3852770193084949  0.9043177289083718  0.4778269087561652  1.0000
  C   C407      1.0  0.43628198106016836  0.9922225101641933  0.43987258893642855  1.0000
  C   C408      1.0  0.4587944338697428  0.9997504741071912  0.4542749077665245  1.0000
  C   C409      1.0  0.4715455266051509  0.5252501747661656  0.4681345434712192  1.0000
  C   C410      1.0  0.4605908319207794  0.5415637316985841  0.4706000668063759  1.0000
  C   C411      1.0  0.4359986710777911  0.5324142674707552  0.45982233527062727  1.0000
  C   C412      1.0  0.4242953183874335  0.5077182730132386  0.44334978081400017  1.0000
  C   C413      1.0  0.46840035734641006  0.9791134707398683  0.45750867388002725  1.0000
  C   C414      1.0  0.49182294047599895  0.9868256189588837  0.4317033096248312  1.0000
  C   C415      1.0  0.016820043144006095  0.5074440717282251  0.437581260184734  1.0000
  C   C416      1.0  0.03575315164937113  0.5187011329196836  0.41489129905684197  1.0000
  C   C417      1.0  0.031059196907623564  0.508198107279586  0.3857181728547108  1.0000
  C   C418      1.0  0.006598316072648112  0.9866524226277185  0.37937570340557564  1.0000
  C   C419      1.0  0.4868146960707386  0.9768013180730895  0.4020656645334676  1.0000
  C   C420      1.0  0.45850814710515925  0.9847001187286036  0.5150062860058842  1.0000
  C   C421      1.0  0.45804499260193693  0.9785785918497082  0.5428662530403775  1.0000
  C   C422      1.0  0.4735365951386535  0.968431391066005  0.5489384975587573  1.0000
  C   C423      1.0  0.49325655251626976  0.9690763959676393  0.5270011463619775  1.0000
  C   C424      1.0  0.4930057396869586  0.9739617486512295  0.4979285170349206  1.0000
  C   C425      1.0  0.4746779529462143  0.9809118673601067  0.49111706216877193  1.0000
  C   C426      1.0  0.4664169349064002  0.9548735866211346  0.5792371887617209  1.0000
  C   C427      1.0  0.3810066932443284  0.898597749110858  0.5927171696050236  1.0000
  C   C428      1.0  0.39555431150237325  0.9138826644668873  0.616805153928394  1.0000
  C   C429      1.0  0.42210647136878593  0.9312101392488507  0.6133301953147129  1.0000
  C   C430      1.0  0.43504209733974836  0.9354179803947402  0.5845813892517845  1.0000
  C   C431      1.0  0.4202624915954108  0.9210063681099976  0.5606653662479857  1.0000
  C   C432      1.0  0.3940924637936159  0.9027446856237877  0.5644127830563127  1.0000
  C   C433      1.0  0.4788565693458714  0.9805117090068126  0.6025345976678399  1.0000
  C   C434      1.0  0.005670069205170838  0.9924481333056709  0.6080931914913953  1.0000
  C   C435      1.0  0.016314504080429636  0.5140741061149675  0.6285588217843089  1.0000
  C   C436      1.0  0.0009729277614320265  0.5247691358891783  0.6430884366561657  1.0000
  C   C437      1.0  0.474770294976512  0.514024808641522  0.6371211555406414  1.0000
  C   C438      1.0  0.46445360685280407  0.9929780722328384  0.616231205108525  1.0000
  C   C439      1.0  0.4792060119424237  0.9288874711047105  0.6100003988539169  1.0000
  C   C440      1.0  0.4814122775507397  0.9072286310332475  0.6133837936480859  1.0000
  C   C441      1.0  0.4815631587654839  0.8903063187146755  0.589099282102348  1.0000
  C   C442      1.0  0.4810000386843938  0.8958889415130081  0.5613487449984911  1.0000
  C   C443      1.0  0.47678232009795873  0.916305390332784  0.5577732895097357  1.0000
  C   C444      1.0  0.47586914796858454  0.9333841189344354  0.581803208971952  1.0000
  H   H325      1.0  0.4272377287618735  0.9729312267957732  0.4274400088577893  1.0000
  H   H326      1.0  0.489844518053895  0.5313579770670067  0.47800333660351785  1.0000
  H   H327      1.0  0.47117502038121234  0.5613098277803341  0.4814715954255273  1.0000
  H   H328      1.0  0.4051298581632178  0.5005376525423192  0.43415989990442583  1.0000
  H   H329      1.0  0.020455155293816394  0.5154468441287585  0.46073574020185837  1.0000
  H   H330      1.0  0.05519927597303393  0.5353296789611447  0.420592821769392  1.0000
  H   H331      1.0  0.002165502217349239  0.9781971241290874  0.3572552245697715  1.0000
  H   H332      1.0  0.46638909676404705  0.9622751235754042  0.3976438020301973  1.0000
  H   H333      1.0  0.4436039062764772  0.9893713894142177  0.510423628502495  1.0000
  H   H334      1.0  0.4425712556887506  0.9792831258120497  0.5589948848578614  1.0000
  H   H335      1.0  0.007465890047691589  0.9630651550425808  0.5312220151150991  1.0000
  H   H336      1.0  0.006056960578446217  0.9710526692875758  0.48091327945289214  1.0000
  H   H337      1.0  0.386039933882771  0.9126881706508593  0.6388430020002481  1.0000
  H   H338      1.0  0.4323323809860177  0.9421028305031237  0.6333960713712197  1.0000
  H   H339      1.0  0.42922688605782044  0.9218123885462406  0.5377766446338357  1.0000
  H   H340      1.0  0.3840097023016404  0.8918293064313767  0.5440990147079559  1.0000
  H   H341      1.0  0.018302589761204302  0.9846849621776683  0.5951357943984791  1.0000
  H   H342      1.0  0.037361917508222285  0.523010365159399  0.633380438523986  1.0000
  H   H343      1.0  0.46301890824024705  0.5231751291454819  0.6486336308963779  1.0000
  H   H344      1.0  0.4437142346888812  0.9858232541974742  0.614082805245825  1.0000
  H   H345      1.0  0.47878399242103675  0.9414045451168733  0.6301846378966224  1.0000
  H   H346      1.0  0.4828229816594434  0.903686636261573  0.635363576858786  1.0000
  H   H347      1.0  0.48003135504269484  0.8823753183753783  0.5422498722065884  1.0000
  H   H348      1.0  0.47195636891539  0.9177018716779258  0.53655504928571  1.0000
  C   C445      1.0  0.45771655056111377  0.5739068980251708  0.9414547256962734  1.0000
  C   C446      1.0  0.4815684596578506  0.589337406346341  0.926563322074149  1.0000
  C   C447      1.0  0.4842824183577459  0.5854593388187309  0.8957822458708288  1.0000
  C   C448      1.0  0.4636151731882132  0.5675488092312194  0.8790975313446002  1.0000
  C   C449      1.0  0.4390849849284997  0.5528379678787919  0.8949135062174085  1.0000
  C   C450      1.0  0.43659119330604096  0.5558890598850853  0.925761580337445  1.0000
  H   H349      1.0  0.4982533544463554  0.603867002701838  0.939531885486518  1.0000
  H   H350      1.0  0.00397952711198528  0.5955619420920181  0.8857526577384112  1.0000
  H   H351      1.0  0.42171314768480617  0.5372937729259739  0.8837293206535813  1.0000
  H   H352      1.0  0.41825204069222865  0.5428037874195246  0.9371154939569533  1.0000
  C   C451      1.0  0.43145828544669385  0.57063198322205  0.834112896797442  1.0000
  C   C452      1.0  0.4458508627767136  0.5575057807407506  0.8253272366520555  1.0000
  C   C453      1.0  0.4396560661574069  0.5404448321377033  0.7991243514243433  1.0000
  C   C454      1.0  0.4204373139798826  0.5371599474232472  0.7816847937031121  1.0000
  C   C455      1.0  0.40580075341775074  0.5502652017800692  0.791071201835054  1.0000
  C   C456      1.0  0.411364371106521  0.5667715584509347  0.8176626749797204  1.0000
  C   C457      1.0  0.4690194480788952  0.5617802204455213  0.8445154399995799  1.0000
  C   C458      1.0  0.47301486549259336  0.5367058197323235  0.8446472025691217  1.0000
  C   C459      1.0  0.49852161028879616  0.5405952814899707  0.8462730186814352  1.0000
  C   C460      1.0  0.003994931393676844  0.5200476879287401  0.8414447021500866  1.0000
  C   C461      1.0  0.4836812260388858  0.9949117508561491  0.83707867124408  1.0000
  C   C462      1.0  0.45756144655846887  0.9904306637465683  0.840723357913442  1.0000
  C   C463      1.0  0.4523654512522662  0.511225539323678  0.8434747390265881  1.0000
  C   C464      1.0  0.00382509249850947  0.5775924922861705  0.7999662919110772  1.0000
  C   C465      1.0  0.01978298820312308  0.5953310838222768  0.780222005854808  1.0000
  C   C466      1.0  0.026043091235100516  0.6217197783303763  0.7865667085678338  1.0000
  C   C467      1.0  0.016734470263674393  0.6286084508414662  0.8147705982414705  1.0000
  C   C468      1.0  0.49952274629082277  0.6105358071585991  0.8336394448526474  1.0000
  C   C469      1.0  0.492447858482697  0.58457476402167  0.8264662012362313  1.0000
  C   C470      1.0  0.039460822654036366  0.6429137612484294  0.7622799637582054  1.0000
  C   C471      1.0  0.03538798381327775  0.5979287018636035  0.6757030225136199  1.0000
  C   C472      1.0  0.02202476129218536  0.6119379440929742  0.6804933735588293  1.0000
  C   C473      1.0  0.0249628896452409  0.6284120294327533  0.7062942712862443  1.0000
  C   C474      1.0  0.03971382169055562  0.6293284322849685  0.7284281497053916  1.0000
  C   C475      1.0  0.05579250714841946  0.6176264060657417  0.7206965901163404  1.0000
  C   C476      1.0  0.05326376961976987  0.6018724604857353  0.6950162886390145  1.0000
  C   C477      1.0  0.07005455416731776  0.6635691029833882  0.7656901577190607  1.0000
  C   C478      1.0  0.08353612905993404  0.6639190951260666  0.7893404223198852  1.0000
  C   C479      1.0  0.10735632114574928  0.6854894081751439  0.796937986075504  1.0000
  C   C480      1.0  0.118967484295355  0.7068340869081644  0.7805770948134041  1.0000
  C   C481      1.0  0.10836056686348798  0.7045551833672165  0.7544501405579702  1.0000
  C   C482      1.0  0.08448980731981637  0.6829125549569613  0.7469396740940824  1.0000
  C   C483      1.0  0.030987112694234507  0.6832808360897821  0.7816579945364257  1.0000
  C   C484      1.0  0.014243499278321175  0.6931274069734348  0.7940481426011446  1.0000
  C   C485      1.0  0.4870019155744633  0.6773784455925053  0.7921074362802649  1.0000
  C   C486      1.0  0.4778753562609221  0.653850950151519  0.7756840136292296  1.0000
  C   C487      1.0  0.4940204986362783  0.6430396480244489  0.7650000791768837  1.0000
  C   C488      1.0  0.021573467319330658  0.6575203059503223  0.7678742898040093  1.0000
  H   H353      1.0  0.4360819479687195  0.5839159050830792  0.8536226901452043  1.0000
  H   H354      1.0  0.44915065299017387  0.528487203373215  0.7911292666962081  1.0000
  H   H355      1.0  0.41674043461123794  0.5237915545821222  0.761547453202108  1.0000
  H   H356      1.0  0.40015734692257243  0.5777979180661125  0.8243513003318893  1.0000
  H   H357      1.0  0.015201938662480664  0.5603844115102629  0.8484750168775084  1.0000
  H   H358      1.0  0.024559289012209797  0.5240319854339848  0.8405871288161191  1.0000
  H   H359      1.0  0.44110899366384254  0.9698350289758686  0.8379228449947042  1.0000
  H   H360      1.0  0.4323559470932587  0.5074233643799466  0.8424675370119542  1.0000
  H   H361      1.0  0.4969730821501065  0.5572256526750666  0.7917545805855596  1.0000
  H   H362      1.0  0.02423910729282553  0.5875624260654592  0.7584878816720675  1.0000
  H   H363      1.0  0.0219019115570443  0.6488257575962949  0.8224530260249298  1.0000
  H   H364      1.0  0.49122865235696  0.6177988938549404  0.853633856464657  1.0000
  H   H365      1.0  0.008609927665617271  0.6107375196845731  0.6649654897279009  1.0000
  H   H366      1.0  0.01308580319029633  0.6383610301280871  0.7102181159419241  1.0000
  H   H367      1.0  0.06918543149752393  0.6188397963912049  0.7359051172109214  1.0000
  H   H368      1.0  0.06500752674787237  0.5916161669975022  0.6908959167609672  1.0000
  H   H369      1.0  0.07444110807151683  0.648067741223061  0.8036355444832352  1.0000
  H   H370      1.0  0.11555896751792048  0.6868069198575549  0.8169189981041703  1.0000
  H   H371      1.0  0.1176458722114195  0.7214639021484451  0.7413989463816512  1.0000
  H   H372      1.0  0.07603006277598491  0.682055823679733  0.7268045668569687  1.0000
  H   H373      1.0  0.052022131398982825  0.6971395321274887  0.7852111173862756  1.0000
  H   H374      1.0  0.02345873588186499  0.7123677769364657  0.8062573962907299  1.0000
  H   H375      1.0  0.4565154931044317  0.6408406768258013  0.7748398398786054  1.0000
  H   H376      1.0  0.4850961494938159  0.6226053686991494  0.7554997745865242  1.0000
  C   C489      1.0  0.49106272975348436  0.864372344807435  0.6452122706160698  1.0000
  C   C490      1.0  0.012105223006334697  0.8828862381483774  0.6610394118083306  1.0000
  C   C491      1.0  0.008554854348696808  0.8865256007133113  0.6918606867616808  1.0000
  C   C492      1.0  0.4852181908672495  0.8706414892453224  0.7075203331621511  1.0000
  C   C493      1.0  0.4643146685250212  0.8507114644904802  0.6912889712057023  1.0000
  C   C494      1.0  0.4673202261312947  0.8479423216973868  0.6602644692383131  1.0000
  H   H377      1.0  0.03143026674468057  0.8950345160187267  0.6495113036053604  1.0000
  H   H378      1.0  0.025677550658551946  0.9014026947276025  0.703190034478393  1.0000
  H   H379      1.0  0.4463766419721496  0.8365925642660168  0.7028215459364537  1.0000
  H   H380      1.0  0.450720176480963  0.8321804814535134  0.6484460367295725  1.0000
  C   C495      1.0  0.43750189379735405  0.8723061630951973  0.748525291456366  1.0000
  C   C496      1.0  0.45523249502126695  0.867211565742582  0.7600935984093661  1.0000
  C   C497      1.0  0.44996188709896434  0.8609314934410073  0.7892734244031689  1.0000
  C   C498      1.0  0.4292047500710157  0.8615466145327735  0.8073918943471243  1.0000
  C   C499      1.0  0.413276496611799  0.8688478276330329  0.7964980330890675  1.0000
  C   C500      1.0  0.4165250854449103  0.8727251683526079  0.7665499643169188  1.0000
  C   C501      1.0  0.4841017400281463  0.8739954650089018  0.7427791034660052  1.0000
  C   C502      1.0  4.343571999406811e-05  0.9040454012868783  0.7578692675743877  1.0000
  C   C503      1.0  0.010132242644774563  0.9102432327809258  0.7861446216925215  1.0000
  C   C504      1.0  0.017228344212483204  0.9345208432429906  0.8023246185794878  1.0000
  C   C505      1.0  0.014141872343043036  0.9527949128359785  0.7908367091265474  1.0000
  C   C506      1.0  0.005730300271627557  0.9479173217106672  0.762344728411031  1.0000
  C   C507      1.0  0.49872355971687604  0.9238060667726674  0.7465309868021133  1.0000
  C   C508      1.0  0.4758373381425368  0.8279382008528823  0.7499635134018742  1.0000
  C   C509      1.0  0.48219219058379426  0.8119170339841603  0.7624608581333391  1.0000
  C   C510      1.0  0.006409774098977552  0.8224325672190426  0.7742011264059108  1.0000
  C   C511      1.0  0.025925873905136208  0.847737574544843  0.7674566694564784  1.0000
  C   C512      1.0  0.019694621605390334  0.8627896000729965  0.753697530626858  1.0000
  C   C513      1.0  0.49399362772451666  0.8545740396461285  0.7484113949979485  1.0000
  C   C514      1.0  0.010675055405487525  0.8107884098369723  0.8006072386476623  1.0000
  C   C515      1.0  0.4879038556288935  0.8635133245686394  0.8570328841060596  1.0000
  C   C516      1.0  0.46912508108561046  0.8378019620859959  0.8502236625038015  1.0000
  C   C517      1.0  0.4765585873349765  0.820173264507421  0.8351893299926826  1.0000
  C   C518      1.0  0.003253685499394213  0.8278574633245368  0.8274555371397407  1.0000
  C   C519      1.0  0.02223024030719314  0.8532544472020046  0.8377665165223664  1.0000
  C   C520      1.0  0.014648459654378467  0.8713872842066378  0.8519700748662042  1.0000
  C   C521      1.0  0.03965341966917461  0.8146339181286881  0.8002566162168473  1.0000
  C   C522      1.0  0.05350381872739143  0.8127848656212691  0.7740559642530256  1.0000
  C   C523      1.0  0.07864380268347662  0.8162451324439106  0.7738929359890161  1.0000
  C   C524      1.0  0.08956452209494303  0.8197962237749032  0.8005268411476026  1.0000
  C   C525      1.0  0.07502177855975076  0.8203452944809022  0.8271227808200501  1.0000
  C   C526      1.0  0.04974730880901638  0.8164846435352338  0.8269664523477123  1.0000
  C   C527      1.0  0.4811344689197304  0.7666253247089753  0.8237259864425379  1.0000
  C   C528      1.0  0.46800462443622937  0.7395944838296201  0.8218522780383745  1.0000
  C   C529      1.0  0.4686498855256724  0.7251716394901092  0.7957431898940649  1.0000
  C   C530      1.0  0.48185264756328383  0.7377303079993395  0.7710008592507661  1.0000
  C   C531      1.0  0.4929351481779091  0.7643058561859385  0.771876298695858  1.0000
  C   C532      1.0  0.4933828523854372  0.7797452593822918  0.7984633053127432  1.0000
  H   H381      1.0  0.4407213898744272  0.8784652816941144  0.7265187090789795  1.0000
  H   H382      1.0  0.46404361324638693  0.8577909253374268  0.7986709988545636  1.0000
  H   H383      1.0  0.42703782080217045  0.8575022203632159  0.8307764005449745  1.0000
  H   H384      1.0  0.4036620572753458  0.877513443718981  0.7574829129213242  1.0000
  H   H385      1.0  0.008910493541414736  0.8952417381554276  0.7975744662843082  1.0000
  H   H386      1.0  0.02483734693590705  0.9387675081628606  0.8240297103316515  1.0000
  H   H387      1.0  0.0010341853818669597  0.9613016765603382  0.7538851247936634  1.0000
  H   H388      1.0  0.49061079975037053  0.9204461075498617  0.7249308584528051  1.0000
  H   H389      1.0  0.45604274392878236  0.8197370747473675  0.7425513105491701  1.0000
  H   H390      1.0  0.4660774428153098  0.7933845159141861  0.7683075429987744  1.0000
  H   H391      1.0  0.04597854129783913  0.857944549226536  0.7751212311288134  1.0000
  H   H392      1.0  0.034712972465528166  0.8825907996124697  0.7503364684715944  1.0000
  H   H393      1.0  0.4475735769403506  0.8309967410370741  0.855480765702134  1.0000
  H   H394      1.0  0.46040197252733317  0.8012417435134235  0.8279468551956596  1.0000
  H   H395      1.0  0.04353399445715263  0.8611677594015631  0.8320024624208813  1.0000
  H   H396      1.0  0.028870148384467054  0.891471347464336  0.8573343747312826  1.0000
  H   H397      1.0  0.04498992269096622  0.8087685585110375  0.7531816466681431  1.0000
  H   H398      1.0  0.09024210871428015  0.8159691098190753  0.7533111759737945  1.0000
  H   H399      1.0  0.08278854803239766  0.8212601390365832  0.8478117375020177  1.0000
  H   H400      1.0  0.037888137845963746  0.8168724065636912  0.8485129823636476  1.0000
  H   H401      1.0  0.48255254202069486  0.7778667747730386  0.8458330656949988  1.0000
  H   H402      1.0  0.45834310069996537  0.7306477820556019  0.841880188608742  1.0000
  H   H403      1.0  0.4821965706458397  0.7263850204102303  0.7497826190267404  1.0000
  H   H404      1.0  0.0032170053649133376  0.7742906289116386  0.7525250670843241  1.0000
  C   C533      1.0  0.2823414556989058  0.8871615591104305  0.8921621251042625  1.0000
  C   C534      1.0  0.279662154671793  0.8637922140623082  0.8787558419693476  1.0000
  C   C535      1.0  0.26543108684449157  0.851689542057368  0.85434850090963  1.0000
  C   C536      1.0  0.2532245477425329  0.8624471361409334  0.8419471865254583  1.0000
  C   C537      1.0  0.2562636194427784  0.8865526897465938  0.8548599183405637  1.0000
  C   C538      1.0  0.2704495861824712  0.898613395793867  0.8800466684980801  1.0000
  H   H405      1.0  0.2896435218038875  0.8549884251516854  0.8873405083645854  1.0000
  H   H406      1.0  0.2649352291034038  0.8336469621420985  0.8437136982628759  1.0000
  H   H407      1.0  0.2466276257336066  0.8954594804972472  0.8453730133335475  1.0000
  H   H408      1.0  0.271606772359034  0.9173700423870055  0.8898819626720206  1.0000
  C   C539      1.0  0.19619857462988197  0.8518716052316337  0.8394548640236151  1.0000
  C   C540      1.0  0.21124203761570357  0.8507808533942339  0.813343542615415  1.0000
  C   C541      1.0  0.20148974303076272  0.8488667155103851  0.7862183194009095  1.0000
  C   C542      1.0  0.17894264254419295  0.8503793812439001  0.7853294803724744  1.0000
  C   C543      1.0  0.16473372756204246  0.852767419314097  0.8120192171283244  1.0000
  C   C544      1.0  0.17283515845349284  0.8526356176406739  0.8388809152037462  1.0000
  C   C545      1.0  0.23754631983241487  0.8483107934086608  0.8127360948371879  1.0000
  C   C546      1.0  0.22382494430014763  0.8169023144431076  0.8069206756662204  1.0000
  C   C547      1.0  0.22016199558952712  0.80436434342128  0.7780133078670635  1.0000
  C   C548      1.0  0.20387016620199422  0.7782728313133781  0.7725998761963933  1.0000
  C   C549      1.0  0.19087094570137242  0.7635467872348675  0.7958905853108406  1.0000
  C   C550      1.0  0.19444626262502232  0.7747373370146021  0.8247666874155298  1.0000
  C   C551      1.0  0.21087413567568467  0.8016655563125151  0.8305285082531244  1.0000
  C   C552      1.0  0.2660352826621085  0.886332615640572  0.7790115768261351  1.0000
  C   C553      1.0  0.2883681958895549  0.9005055552828842  0.7615809521604662  1.0000
  C   C554      1.0  0.30867304091383374  0.89421841815029  0.7560000256980052  1.0000
  C   C555      1.0  0.3026194386958004  0.869247296162073  0.7624653246611202  1.0000
  C   C556      1.0  0.2800278751355708  0.8543256103685973  0.7788865140482649  1.0000
  C   C557      1.0  0.2611540276828355  0.8626108857578513  0.7882639891246446  1.0000
  C   C558      1.0  0.3386372631543371  0.9139166026296756  0.7442351915226377  1.0000
  C   C559      1.0  0.3377322195287924  0.8730406774318884  0.6546344109702603  1.0000
  C   C560      1.0  0.3250229260861073  0.8881695845540434  0.6616289934754334  1.0000
  C   C561      1.0  0.32547753939639534  0.9006179570519178  0.6898775484268806  1.0000
  C   C562      1.0  0.3395110134834273  0.8995421100385401  0.7113548472622091  1.0000
  C   C563      1.0  0.350899714832524  0.8833638208203598  0.7039292448261618  1.0000
  C   C564      1.0  0.3503974502400437  0.8699796024428326  0.6761273426528226  1.0000
  C   C565      1.0  0.3596874378234977  0.9168982668332424  0.7662909057056162  1.0000
  C   C566      1.0  0.3867721834189553  0.9253202278923938  0.7574829129213242  1.0000
  C   C567      1.0  0.4028498462258626  0.9239652960677619  0.7755053525179865  1.0000
  C   C568      1.0  0.3930115880274484  0.9159461017961371  0.8036333112193446  1.0000
  C   C569      1.0  0.3678668007248104  0.9115144661442337  0.814227915116069  1.0000
  C   C570      1.0  0.3514175644164866  0.9124440481568368  0.7960402139915068  1.0000
  C   C571      1.0  0.36243970290751737  0.958807631576695  0.7227288602567322  1.0000
  C   C572      1.0  0.37068578923764384  0.9850799756517241  0.7236936302574457  1.0000
  C   C573      1.0  0.3631842570785733  0.9976065005250205  0.747946876108716  1.0000
  C   C574      1.0  0.348103475266154  0.983833766289079  0.7714832442511228  1.0000
  C   C575      1.0  0.3401176156063041  0.9574670056895616  0.7700204564028188  1.0000
  C   C576      1.0  0.34648355489945104  0.9438682888247273  0.7454456205513106  1.0000
  H   H409      1.0  0.2018158339090388  0.8518879208466114  0.8607847674421677  1.0000
  H   H410      1.0  0.21153692196285634  0.8450565222687634  0.7652055394548135  1.0000
  H   H411      1.0  0.17102902310055695  0.8474985309474948  0.7642899012596918  1.0000
  H   H412      1.0  0.1604425245768333  0.8521689671962491  0.8593733446633463  1.0000
  H   H413      1.0  0.22952268738807807  0.8159227499435094  0.7590796966030606  1.0000
  H   H414      1.0  0.20035988685678618  0.7694665256754761  0.748992043609489  1.0000
  H   H415      1.0  0.18445961372073932  0.7633313320546039  0.8442385152771529  1.0000
  H   H416      1.0  0.21155698540193166  0.8108880931135098  0.853497627367334  1.0000
  H   H417      1.0  0.25212394031665186  0.8934348815038371  0.7849185598166148  1.0000
  H   H418      1.0  0.2910066529098749  0.9180499843109168  0.7547136656970539  1.0000
  H   H419      1.0  0.31721009397500793  0.8627969826402426  0.7580255960467256  1.0000
  H   H420      1.0  0.27729112336182965  0.8367310395493341  0.7864438790538542  1.0000
  H   H421      1.0  0.31507634151635733  0.8912881628407212  0.645118473532667  1.0000
  H   H422      1.0  0.3151674345226117  0.9119045400967809  0.6940559851660821  1.0000
  H   H423      1.0  0.3606836346012464  0.8804697610538899  0.7199261140741038  1.0000
  H   H424      1.0  0.3585506230988129  0.8564327079660082  0.6726300514002361  1.0000
  H   H425      1.0  0.39421279819712285  0.9307251193849062  0.7348979151962877  1.0000
  H   H426      1.0  0.4230330911542596  0.9278702379232654  0.7671172133451162  1.0000
  H   H427      1.0  0.3591176140042131  0.9053050224191017  0.8355779179096366  1.0000
  H   H428      1.0  0.3324773964103962  0.9097977172804426  0.8059715385127405  1.0000
  H   H429      1.0  0.36938019156588847  0.9498521202324486  0.7030828378116469  1.0000
  H   H430      1.0  0.38380367195669224  0.9956569245731074  0.7050883087853523  1.0000
  H   H431      1.0  0.3410039571158626  0.9934472624082609  0.7904235553067973  1.0000
  H   H432      1.0  0.3291170922542647  0.9475002575301147  0.7900595332926391  1.0000
  C   C577      1.0  0.08235528567255078  0.9571593660462355  0.09162099106776032  1.0000
  C   C578      1.0  0.07579435462787704  0.9761778813035908  0.10510722504995657  1.0000
  C   C579      1.0  0.07181100981512184  0.9799120579782779  0.1354063629056983  1.0000
  C   C580      1.0  0.07332697460086267  0.9635441820645732  0.15290912199503173  1.0000
  C   C581      1.0  0.08451222476601285  0.9475563818754456  0.1393688430266844  1.0000
  C   C582      1.0  0.08925388565252727  0.9448760112039585  0.10912218687237037  1.0000
  H   H433      1.0  0.0701253345483988  0.9857853465130176  0.09132352031754032  1.0000
  H   H434      1.0  0.06543908898605667  0.9946385757302201  0.14460115699583184  1.0000
  H   H435      1.0  0.08793083956793696  0.9359545993690086  0.15208705755692375  1.0000
  H   H436      1.0  0.09517551198619537  0.9301051737674149  0.09908187907327817  1.0000
  C   C583      1.0  0.031028407443764013  0.9119172748268719  0.1804088635639809  1.0000
  C   C584      1.0  0.04890009401311422  0.9332748094813136  0.19829998724387932  1.0000
  C   C585      1.0  0.0515890594147131  0.9280224511364888  0.2260733036394197  1.0000
  C   C586      1.0  0.038412607737663  0.9029459703935548  0.23454630684013053  1.0000
  C   C587      1.0  0.020768852717751765  0.8825138605086963  0.21575316787484278  1.0000
  C   C588      1.0  0.016875346244922866  0.8870743438225094  0.18880839238269295  1.0000
  C   C589      1.0  0.06193303509525955  0.9618151814918984  0.18797471497235416  1.0000
  C   C590      1.0  0.036771305958582134  0.9664945719621523  0.1973541999862354  1.0000
  C   C591      1.0  0.03310395368978354  0.9754948386375702  0.2270939052373967  1.0000
  C   C592      1.0  0.010932509804955984  0.9782696440406236  0.23739148503667917  1.0000
  C   C593      1.0  0.4924356431201819  0.9729853578451353  0.2168992789034682  1.0000
  C   C594      1.0  0.4957708550339089  0.9633901031202738  0.18810759417384132  1.0000
  C   C595      1.0  0.016925337824590606  0.9591235915832917  0.17835158086801492  1.0000
  C   C596      1.0  0.10696416785838615  0.9814619642210954  0.21165512863570085  1.0000
  C   C597      1.0  0.12744769736586428  0.5011117083600575  0.22707380586238185  1.0000
  C   C598      1.0  0.13157614683115515  0.5268746216454228  0.23056663058718727  1.0000
  C   C599      1.0  0.11441747328703897  0.5316580028602785  0.21698056970908383  1.0000
  C   C600      1.0  0.09380923094264541  0.5113259615138889  0.20177673246867284  1.0000
  C   C601      1.0  0.08808530043888552  0.9853538633727027  0.20167310902415175  1.0000
  C   C602      1.0  0.15297953035435874  0.5491208559593016  0.2523275539366144  1.0000
  C   C603      1.0  0.0970066459644623  0.528256481169944  0.3313806291339687  1.0000
  C   C604      1.0  0.11512341675511424  0.5185920908654882  0.32458704037894437  1.0000
  C   C605      1.0  0.13311859299716372  0.5255953382703435  0.30008366897193345  1.0000
  C   C606      1.0  0.13499988572727675  0.5438657386262342  0.28309299729270093  1.0000
  C   C607      1.0  0.11742504448236875  0.5540803151659849  0.29065706208996184  1.0000
  C   C608      1.0  0.09823689602404934  0.5459299769229385  0.31427606099631866  1.0000
  C   C609      1.0  0.16603265842674803  0.5783118298191854  0.24412924219444002  1.0000
  C   C610      1.0  0.17376069629357552  0.5826522271461799  0.21444894176276708  1.0000
  C   C611      1.0  0.1929292558140314  0.6064737377556707  0.207061528139248  1.0000
  C   C612      1.0  0.20589488425521674  0.6264689483838606  0.22853212718290483  1.0000
  C   C613      1.0  0.19624354381647785  0.6236168438740612  0.2580625756075225  1.0000
  C   C614      1.0  0.1764838616920445  0.6000659879997693  0.2654703119324455  1.0000
  C   C615      1.0  0.19704424095948192  0.5586866998877342  0.274450266036309  1.0000
  C   C616      1.0  0.22293813906765467  0.5637935386729845  0.2702405636026401  1.0000
  C   C617      1.0  0.23302287659366266  0.5572662537144085  0.24295231212412516  1.0000
  C   C618      1.0  0.21653454822424595  0.5452868020074124  0.2199467908084998  1.0000
  C   C619      1.0  0.19068253954291256  0.5407932984714722  0.22331075620682103  1.0000
  C   C620      1.0  0.179908717549145  0.5473382489718116  0.25100546171341437  1.0000
  H   H437      1.0  0.02705168080579214  0.9153831400700885  0.1594114931387296  1.0000
  H   H438      1.0  0.06370741925551669  0.9441537689196784  0.24205677330401837  1.0000
  H   H439      1.0  0.04193293873035364  0.8996953700041822  0.2557399811613603  1.0000
  H   H440      1.0  0.0037330339257889682  0.8713938174610776  0.17290532021815372  1.0000
  H   H441      1.0  0.048267388924772295  0.9806415565385149  0.24221980156802786  1.0000
  H   H442      1.0  0.007983265106411347  0.9844616292900622  0.26041643574815226  1.0000
  H   H443      1.0  0.48120605616236234  0.9580163120962831  0.17272040596801694  1.0000
  H   H444      1.0  0.01843516295419862  0.951321554387826  0.15591978504586945  1.0000
  H   H445      1.0  0.10431034415060003  0.9618268454936452  0.20957395001610613  1.0000
  H   H446      1.0  0.13965502971481097  0.9957904247269264  0.23659644309164676  1.0000
  H   H447      1.0  0.11680733999543359  0.5515299860530717  0.21830712846006492  1.0000
  H   H448      1.0  0.08093107278189156  0.5155298523727295  0.19197940378087147  1.0000
  H   H449      1.0  0.1130868658261565  0.5036862147344469  0.3372742125411052  1.0000
  H   H450      1.0  0.1457257340078666  0.5163469850363981  0.2933660111891875  1.0000
  H   H451      1.0  0.11734841773524321  0.5665032592414136  0.2746490265225672  1.0000
  H   H452      1.0  0.08477412640414662  0.5544371121024133  0.31781801752671596  1.0000
  H   H453      1.0  0.16782072201660614  0.5670476086440686  0.19576389276978148  1.0000
  H   H454      1.0  0.20048028912310437  0.6083762421596249  0.18381436767066617  1.0000
  H   H455      1.0  0.2064502344659031  0.6391931548444992  0.2749058518699793  1.0000
  H   H456      1.0  0.17083576133225165  0.5975200303780115  0.28975705674207397  1.0000
  H   H457      1.0  0.19029001490512293  0.5665063448866772  0.2945943063289848  1.0000
  H   H458      1.0  0.23640441699950193  0.5748865210790005  0.28834563396325236  1.0000
  H   H459      1.0  0.224194539213151  0.5418279523044178  0.19721707758335622  1.0000
  H   H460      1.0  0.1811131684661793  0.5344825953102709  0.20294964266398477  1.0000
  C   C621      1.0  0.3701834296851116  0.7809686747994062  0.1519678012651689  1.0000
  C   C622      1.0  0.3462256296688981  0.759027126823652  0.1569792454355419  1.0000
  C   C623      1.0  0.3430699966341576  0.7439441721322722  0.17921540734087602  1.0000
  C   C624      1.0  0.364243387768917  0.7493400580703474  0.1954416327903765  1.0000
  C   C625      1.0  0.3888231325365866  0.7715183477826367  0.1893030603344477  1.0000
  C   C626      1.0  0.3914381712551926  0.7870596675411434  0.16870276422893452  1.0000
  H   H461      1.0  0.3287075783522284  0.7542717978340329  0.1459589814412805  1.0000
  H   H462      1.0  0.3227504291229752  0.7279254036382741  0.1830307153714755  1.0000
  H   H463      1.0  0.40554237494861933  0.7758627655732159  0.20138300804477052  1.0000
  H   H464      1.0  0.4104631999524957  0.8052631106689916  0.1667948868872457  1.0000
  C   C627      1.0  0.4001519299745682  0.726253486727137  0.20230668598989812  1.0000
  C   C628      1.0  0.38056672803013586  0.7237466448853043  0.22520233072210888  1.0000
  C   C629      1.0  0.3788967097760307  0.7109509459351319  0.24963647094851302  1.0000
  C   C630      1.0  0.39853355028825155  0.7048709487948215  0.2526536104646333  1.0000
  C   C631      1.0  0.4196534734221878  0.7105272923493039  0.2310914476014643  1.0000
  C   C632      1.0  0.42012149840059465  0.7211444626868755  0.20579884073553636  1.0000
  C   C633      1.0  0.36021658415957386  0.735441065891292  0.22512863301372105  1.0000
  C   C634      1.0  0.3323160577695217  0.7091528597327293  0.22608223669498187  1.0000
  C   C635      1.0  0.3123514434386158  0.7059490275430425  0.24821164858634814  1.0000
  C   C636      1.0  0.28740515641628767  0.6840476947188614  0.24675779379360627  1.0000
  C   C637      1.0  0.2823276279957399  0.6657758586136273  0.22282457465785035  1.0000
  C   C638      1.0  0.3019220809293296  0.6686818223010034  0.20020674795362284  1.0000
  C   C639      1.0  0.3266801544691241  0.6897890657896273  0.20270845016380634  1.0000
  C   C640      1.0  0.38183919250011433  0.767730362539429  0.2719646433261374  1.0000
  C   C641      1.0  0.3860509824681343  0.7890155018157602  0.29186079132696313  1.0000
  C   C642      1.0  0.3755021846533343  0.805189763733838  0.2881223075741983  1.0000
  C   C643      1.0  0.3549169509784171  0.7942836314310734  0.2691261649212604  1.0000
  C   C644      1.0  0.34841580725016524  0.7710647682315179  0.2514945465054428  1.0000
  C   C645      1.0  0.3629766068938843  0.7582610243727725  0.2509518633800414  1.0000
  C   C646      1.0  0.38886147939482685  0.8354292578174588  0.30289311494623344  1.0000
  C   C647      1.0  0.3759606753519859  0.8492227668868322  0.399006093003427  1.0000
  C   C648      1.0  0.39433834841454596  0.869331294853293  0.3825469381301432  1.0000
  C   C649      1.0  0.39947355927616834  0.8636468971237454  0.353179517969535  1.0000
  C   C650      1.0  0.3858667200057131  0.8387629192291468  0.3386342702504444  1.0000
  C   C651      1.0  0.36699798125543165  0.8186304445441855  0.35545074734621473  1.0000
  C   C652      1.0  0.36172967108929793  0.824005417307791  0.3853005525071797  1.0000
  C   C653      1.0  0.37674915984314833  0.8530122859440508  0.29557247591304153  1.0000
  C   C654      1.0  0.39225369011861955  0.8784202256624403  0.2865590228508199  1.0000
  C   C655      1.0  0.3798750548159463  0.8924166191900492  0.28128628680525364  1.0000
  C   C656      1.0  0.35283618192117217  0.8820527497908397  0.2855674536834199  1.0000
  C   C657      1.0  0.3378094159741879  0.8587495825357494  0.2976002795256523  1.0000
  C   C658      1.0  0.3498188229235331  0.8449297032124978  0.30290204800179565  1.0000
  C   C659      1.0  0.438581270296386  0.849083445756634  0.3070291196715145  1.0000
  C   C660      1.0  0.46150709761596886  0.8494282661217759  0.29455410757895506  1.0000
  C   C661      1.0  0.46744733107839515  0.8486886290463124  0.26451000845951306  1.0000
  C   C662      1.0  0.44888403345545025  0.8469702815629396  0.24665283039075084  1.0000
  C   C663      1.0  0.42538099209987734  0.8465354855971938  0.25934000255291173  1.0000
  C   C664      1.0  0.4193091250550891  0.8461973318733925  0.2899446509088794  1.0000
  H   H465      1.0  0.4015674109621052  0.7330210652416258  0.18110005873810317  1.0000
  H   H466      1.0  0.3633365704334236  0.7073484792432291  0.2670581625586198  1.0000
  H   H467      1.0  0.39963772755702653  0.6968597346405139  0.2721946695068631  1.0000
  H   H468      1.0  0.4357637868347122  0.7254592538090756  0.188015360375162  1.0000
  H   H469      1.0  0.3163732690973061  0.7214455050948528  0.2671430265864604  1.0000
  H   H470      1.0  0.27178107933088663  0.6820297558651224  0.26400752408414146  1.0000
  H   H471      1.0  0.29785899764495094  0.654117438727206  0.18093926373798427  1.0000
  H   H472      1.0  0.34165498382777115  0.6910613254261762  0.18485417533810183  1.0000
  H   H473      1.0  0.3949216437750435  0.7594797601632732  0.27205844040954014  1.0000
  H   H474      1.0  0.40166863950072274  0.7962040509866418  0.30705591883820105  1.0000
  H   H475      1.0  0.34513809572160603  0.804709471192239  0.2645189415150752  1.0000
  H   H476      1.0  0.3334495209536798  0.7649116177486955  0.23617212295244405  1.0000
  H   H477      1.0  0.4045328095667623  0.8896255231017607  0.3916162227896283  1.0000
  H   H478      1.0  0.41499925340684385  0.8800638669161254  0.34054594414074707  1.0000
  H   H479      1.0  0.3565924984649921  0.7988320072074014  0.34633456414502817  1.0000
  H   H480      1.0  0.34598631560812804  0.8080323362371347  0.39785372883590814  1.0000
  H   H481      1.0  0.41383651369189284  0.8871484615065299  0.2826128455562347  1.0000
  H   H482      1.0  0.3920645304611963  0.9118979075263335  0.2735547272162023  1.0000
  H   H483      1.0  0.3166037313165554  0.8505335941319322  0.30223430209852403  1.0000
  H   H484      1.0  0.3373672185517722  0.826657372019593  0.31216785988364837  1.0000
  H   H485      1.0  0.435762530012081  0.8489805911994396  0.3304292587165984  1.0000
  H   H486      1.0  0.4757420122114078  0.8503744447953073  0.30875543265890243  1.0000
  H   H487      1.0  0.4516959725554692  0.8453427093780552  0.22306420387330536  1.0000
  H   H488      1.0  0.41041411005320466  0.8436259085616583  0.24509401219515356  1.0000
  C   C665      1.0  0.4206344460245439  0.5558522297267404  0.41266250169408253  1.0000
  C   C666      1.0  0.44127887524879533  0.560147712087962  0.3913437645949824  1.0000
  C   C667      1.0  0.43610098335422864  0.5501216102080833  0.36232696686518906  1.0000
  C   C668      1.0  0.4097311770578128  0.5339843899424249  0.3547807681790526  1.0000
  C   C669      1.0  0.3892607156085392  0.5304694650409495  0.3767516183341905  1.0000
  C   C670      1.0  0.3947233848966944  0.541559313775247  0.4052949641191892  1.0000
  H   H489      1.0  0.46167580901716015  0.5720255841307579  0.39595098800116757  1.0000
  H   H490      1.0  0.45289173307779595  0.5548545150439235  0.3456176864361647  1.0000
  H   H491      1.0  0.36863386693581635  0.5185058622586327  0.372155561247458  1.0000
  H   H492      1.0  0.37801238438416396  0.5388767526424633  0.42187471524256226  1.0000
  C   C671      1.0  0.37663052414752735  0.9742783538849045  0.3392394847647809  1.0000
  C   C672      1.0  0.3801384751485174  0.9917000868115382  0.3188229862774592  1.0000
  C   C673      1.0  0.36497853121483803  0.9806928334152119  0.2937702319533753  1.0000
  C   C674      1.0  0.34747693584653344  0.9545196377462051  0.28994018438109825  1.0000
  C   C675      1.0  0.3447295922799935  0.9386506087582991  0.3099479955764511  1.0000
  C   C676      1.0  0.35917635538573794  0.9482930167344747  0.3348153889976201  1.0000
  C   C677      1.0  0.402431919764634  0.5221187635011318  0.3220545191270714  1.0000
  C   C678      1.0  0.4244388887691682  0.5201272335107394  0.29765834438680644  1.0000
  C   C679      1.0  0.425129143685746  0.5221274920460707  0.26780853922584147  1.0000
  C   C680      1.0  0.4435781609147741  0.5193404393552695  0.2472781442801022  1.0000
  C   C681      1.0  0.4610863449890859  0.5131359864380403  0.25645015907855223  1.0000
  C   C682      1.0  0.45986699814976495  0.5091629147225509  0.2858265122947226  1.0000
  C   C683      1.0  0.44177101484467146  0.5124571854580577  0.30579412474004564  1.0000
  C   C684      1.0  0.3699215916781681  0.5361197312867103  0.3066025662684213  1.0000
  C   C685      1.0  0.36590550878741684  0.5475266007783253  0.28620170062833344  1.0000
  C   C686      1.0  0.3869609630990077  0.5682602148220018  0.2732085713131685  1.0000
  C   C687      1.0  0.4115672124601835  0.5790131050674902  0.2850002046552226  1.0000
  C   C688      1.0  0.4155206622797873  0.5672990659853617  0.3060688161985821  1.0000
  C   C689      1.0  0.3953016451949123  0.5429689080374143  0.31327109224557537  1.0000
  C   C690      1.0  0.3844820062043501  0.5756991075800699  0.24215727017909272  1.0000
  C   C691      1.0  0.4107554971038359  0.5262997686894069  0.18041578668204153  1.0000
  C   C692      1.0  0.3848844550420837  0.5159724475205107  0.19300849178163257  1.0000
  C   C693      1.0  0.37679856441001575  0.5308780020471943  0.21271771559482006  1.0000
  C   C694      1.0  0.3937584069315002  0.5568418011691575  0.22074451267020087  1.0000
  C   C695      1.0  0.4201671815134298  0.5669450800977429  0.20937295626595745  1.0000
  C   C696      1.0  0.42876559160145605  0.5519780047402434  0.1891974269524251  1.0000
  C   C697      1.0  0.4013393901015028  0.6061993245089362  0.2359934618412008  1.0000
  C   C698      1.0  0.409340355789512  0.6264982099165833  0.2580692753991941  1.0000
  C   C699      1.0  0.4239964609674121  0.6523368108538699  0.25236328615886305  1.0000
  C   C700      1.0  0.4295490687262303  0.6577856680333086  0.22299966254686873  1.0000
  C   C701      1.0  0.41938168958104294  0.6380598998813939  0.2000548860090661  1.0000
  C   C702      1.0  0.40622500927254734  0.6126301873941056  0.2068049261182249  1.0000
  C   C703      1.0  0.3432628877272822  0.5602216752203986  0.21168639433016842  1.0000
  C   C704      1.0  0.31624242169196715  0.5518384466829878  0.2112339350659449  1.0000
  C   C705      1.0  0.3023316042861988  0.5573189920321929  0.23572100364655485  1.0000
  C   C706      1.0  0.31556549787498284  0.5706703161692507  0.26114224651257795  1.0000
  C   C707      1.0  0.34202776284019537  0.5778241023605437  0.2618792235964563  1.0000
  C   C708      1.0  0.3559732657490405  0.5713992975005685  0.23799446628712514  1.0000
  H   H493      1.0  0.3889847224081896  0.9812409463667165  0.35830485859832556  1.0000
  H   H494      1.0  0.367903993999228  0.9921960870943095  0.27641107173220364  1.0000
  H   H495      1.0  0.33666237040499064  0.946411410090021  0.26973361269948737  1.0000
  H   H496      1.0  0.3580045641580894  0.9352386255262214  0.34974029157810255  1.0000
  H   H497      1.0  0.41153058730943354  0.5265359684758953  0.2595007975530306  1.0000
  H   H498      1.0  0.4426715507151698  0.5204828596511719  0.22445418731877778  1.0000
  H   H499      1.0  0.47272459182963605  0.5032892446664824  0.29388636167568344  1.0000
  H   H500      1.0  0.44014471636854857  0.5077400389085681  0.32903793531279163  1.0000
  H   H501      1.0  0.35325384964541884  0.5187058073889552  0.31421576287127406  1.0000
  H   H502      1.0  0.3462427840994837  0.5388268657519238  0.27736020888568336  1.0000
  H   H503      1.0  0.4285119345070422  0.5953781365903379  0.27521627555076444  1.0000
  H   H504      1.0  0.4356030696134487  0.5741289220613166  0.3110355950911443  1.0000
  H   H505      1.0  0.37093056347061565  0.9956842719033528  0.18706957311751807  1.0000
  H   H506      1.0  0.3566305436732488  0.5226697450721105  0.2224069543103193  1.0000
  H   H507      1.0  0.4349012414360052  0.587450330254756  0.21602026623615142  1.0000
  H   H508      1.0  0.449364417787368  0.5593827405597558  0.1793855820493352  1.0000
  H   H509      1.0  0.40455520927550964  0.6227734597651233  0.2814202826386861  1.0000
  H   H510      1.0  0.43250829504773525  0.6676728362419025  0.2713728283951442  1.0000
  H   H511      1.0  0.4226629789689982  0.6423458442097012  0.17715388144351804  1.0000
  H   H512      1.0  0.399353107621413  0.5975545116743293  0.18836263291014105  1.0000
  H   H513      1.0  0.35180042386821614  0.5539391182985456  0.19226928143386363  1.0000
  H   H514      1.0  0.30625180494991777  0.5404559527133779  0.19131880432204956  1.0000
  H   H515      1.0  0.3047788618628137  0.5752850977230647  0.280506877707455  1.0000
  H   H516      1.0  0.3506559289069799  0.5868378635349837  0.28293220229258204  1.0000
  C   C709      1.0  0.4319348743603055  0.972310145572132  0.14497835526694414  1.0000
  C   C710      1.0  0.4571402946725391  0.9782261440821948  0.132950889258049  1.0000
  C   C711      1.0  0.4618784720227992  0.9620462002123666  0.11080137799166781  1.0000
  C   C712      1.0  0.4416866745181066  0.937978963773696  0.10093258485936914  1.0000
  C   C713      1.0  0.41581944450339564  0.9316072973241915  0.1132959337574016  1.0000
  C   C714      1.0  0.41118725846011084  0.9483646011579938  0.1351799099471975  1.0000
  H   H517      1.0  0.47394486140747294  0.9974883444834437  0.13825734758836236  1.0000
  H   H518      1.0  0.4819387192234707  0.9682643434284764  0.1000475423795479  1.0000
  H   H519      1.0  0.3991211855874929  0.913549950036839  0.10516774650139023  1.0000
  H   H520      1.0  0.39120062466524463  0.9428381702155549  0.14345995914776563  1.0000
  C   C715      1.0  0.4272256206448695  0.8836290586610298  0.1144960897721781  1.0000
  C   C716      1.0  0.4295131059712914  0.8888051077033456  0.08497122450728678  1.0000
  C   C717      1.0  0.42148022815742975  0.8678696368913986  0.06313280690085792  1.0000
  C   C718      1.0  0.4106373838075192  0.842208719037492  0.07008652067683402  1.0000
  C   C719      1.0  0.406378703513855  0.837354174548118  0.09970920290013102  1.0000
  C   C720      1.0  0.41510568362474054  0.8583817990390965  0.12178613309006961  1.0000
  C   C721      1.0  0.4454597483071384  0.9180651313801425  0.0757643707921443  1.0000
  C   C722      1.0  0.4752658300770686  0.921590463168259  0.07014391555882092  1.0000
  C   C723      1.0  0.48554950884734516  0.9163274756691023  0.042157992440901085  1.0000
  C   C724      1.0  0.009658442177099508  0.9160709217108821  0.03766868536813648  1.0000
  C   C725      1.0  0.02414437127494694  0.920552411269005  0.06172607397620642  1.0000
  C   C726      1.0  0.013879164581371338  0.9251402292397403  0.08959184749681517  1.0000
  C   C727      1.0  0.4901338571332647  0.9257841388321978  0.0936391916456418  1.0000
  C   C728      1.0  0.4120125275253055  0.9102836879999122  0.03573557214448458  1.0000
  C   C729      1.0  0.4059525601806957  0.9171380395645032  0.011460848873048102  1.0000
  C   C730      1.0  0.42472112343405505  0.9383237324176371  0.9966967412926846  1.0000
  C   C731      1.0  0.4488889685602334  0.9533794977919197  0.009551408246635917  1.0000
  C   C732      1.0  0.45541099356407017  0.9463729204041011  0.0333794787399643  1.0000
  C   C733      1.0  0.43717020857130734  0.9243593595634051  0.04671787065260678  1.0000
  C   C734      1.0  0.4229189768390099  0.9458083223193081  0.9653528825889479  1.0000
  C   C735      1.0  0.46074664233932305  0.9009350705220006  0.916341673247145  1.0000
  C   C736      1.0  0.4338172848749202  0.8893711327823597  0.9244149222114492  1.0000
  C   C737      1.0  0.4216479827041931  0.9035718323832275  0.938705577847018  1.0000
  C   C738      1.0  0.4369266541816753  0.9304701624398395  0.945720259727206  1.0000
  C   C739      1.0  0.4641942739030143  0.9425115482415283  0.9369301330540384  1.0000
  C   C740      1.0  0.4754226259430123  0.9276765030477205  0.9224317838766491  1.0000
  C   C741      1.0  0.4359230596455306  0.9771250409684892  0.9664092164091737  1.0000
  C   C742      1.0  0.4281309921394917  0.9893263546814901  0.9912967092053574  1.0000
  C   C743      1.0  0.4414030972241053  0.5159517766318162  0.9976838439323034  1.0000
  C   C744      1.0  0.4591141871656041  0.5319887155433342  0.9765460012083371  1.0000
  C   C745      1.0  0.4632545148790645  0.5198808482879637  0.9491215206324991  1.0000
  C   C746      1.0  0.45193990446522725  0.9927354438612048  0.9446706256986518  1.0000
  C   C747      1.0  0.39515147325481476  0.9366673988895025  0.9220811614458342  1.0000
  C   C748      1.0  0.3720303361989619  0.9307140947614194  0.9094118553947977  1.0000
  C   C749      1.0  0.3486378873542845  0.92506342432525  0.9266861515881288  1.0000
  C   C750      1.0  0.34920552035209695  0.9251637952641684  0.95742926230531  1.0000
  C   C751      1.0  0.37235084927129797  0.9321221773583844  0.9697680453005465  1.0000
  C   C752      1.0  0.3955936640495571  0.9378090318754582  0.952504915426668  1.0000
  H   H521      1.0  0.4348966434698424  0.89944905592406  0.13205110723655017  1.0000
  H   H522      1.0  0.4249145335191274  0.8714886053008883  0.039646240543210136  1.0000
  H   H523      1.0  0.4037331610077295  0.8261714130312571  0.05216346132330085  1.0000
  H   H524      1.0  0.4132302481897367  0.8548005359896803  0.14532183125330927  1.0000
  H   H525      1.0  0.4740532458463422  0.9097246010812099  0.02343721122566684  1.0000
  H   H526      1.0  0.017641586235179196  0.9129808625894013  0.014873276097794095  1.0000
  H   H527      1.0  0.02369937518126142  0.9270123963506751  0.10895893528197187  1.0000
  H   H528      1.0  0.4819805626639077  0.9283413349274469  0.1157954027036946  1.0000
  H   H529      1.0  0.39618638164120246  0.8935361390315756  0.046976929263909485  1.0000
  H   H530      1.0  0.38650614218054796  0.905092669965022  0.003409932547649319  1.0000
  H   H531      1.0  0.46437126270186874  0.970770160037302  0.00055582129553855  1.0000
  H   H532      1.0  0.47462814476034054  0.9595039177753841  0.04127562987774852  1.0000
  H   H533      1.0  0.42164969741237096  0.8685346572209601  0.9215228454731991  1.0000
  H   H534      1.0  0.4007707149292263  0.8934348891238925  0.9453808036158438  1.0000
  H   H535      1.0  0.4773930599580538  0.9625410929044667  0.9425311588915141  1.0000
  H   H536      1.0  0.4962846993801363  0.936620451029077  0.9175342361646937  1.0000
  H   H537      1.0  0.41445653458578824  0.9779884903318372  0.008349912273525106  1.0000
  H   H538      1.0  0.43688717868140736  0.5248316661523885  0.019107544434258772  1.0000
  H   H539      1.0  0.47558892974139266  0.5317393628972418  0.9319856868003815  1.0000
  H   H540      1.0  0.4571366702581041  0.9843478680624557  0.9234970507524369  1.0000
  H   H541      1.0  0.4133088548596938  0.9439181509773573  0.9076051449073504  1.0000
  H   H542      1.0  0.37387713976362486  0.9341459171671358  0.8864204036416827  1.0000
  H   H543      1.0  0.3320746525290358  0.923232500516448  0.9728253835666965  1.0000
  H   H544      1.0  0.37145395384042207  0.9343116361899841  0.9941173214991101  1.0000
  C   C753      1.0  0.42757747195215723  0.991755579657373  0.16910542170839896  1.0000
  C   C754      1.0  0.41853733178220387  0.5086973439701286  0.156835199914602  1.0000
  H   H545      1.0  0.4467374768607774  0.5043588338706683  0.17943292724381468  1.0000
  H   H546      1.0  0.4136237097460645  0.9809555912536401  0.1867209606242047  1.0000
  H   H547      1.0  0.4021899430193074  0.9956969402460497  0.1419464762091463  1.0000
  H   H548      1.0  0.4354010521596707  0.5218030111224393  0.1416976906117401  1.0000
  C   C755      1.0  0.3955383278404724  0.8093354182220135  0.10849821294135334  1.0000
  C   C756      1.0  0.3715182998783244  0.8001332644677082  0.13228113341727585  1.0000
  H   H549      1.0  0.3888047279407481  0.7953500591065069  0.08870591171143774  1.0000
  H   H550      1.0  0.4116596940780584  0.8065447639268545  0.11580679234953634  1.0000
  H   H551      1.0  0.3721252615939634  0.8174079880896218  0.14613719589974564  1.0000
  H   H552      1.0  0.35316270841064634  0.792879178178649  0.12063868210310988  1.0000
  C   C757      1.0  0.33939646611878455  0.8967968491907649  0.2766611972879442  1.0000
  C   C758      1.0  0.3270915354379497  0.9092012893083116  0.3021673041818078  1.0000
  H   H553      1.0  0.3529942482028579  0.9116285971160507  0.26094348602631984  1.0000
  H   H554      1.0  0.3223811242905832  0.8825611881850333  0.26405888915362385  1.0000
  H   H555      1.0  0.3214526503028195  0.8984868690624777  0.32223318023831465  1.0000
  H   H556      1.0  0.30751619288085574  0.9048826988564135  0.2956841391075686  1.0000
  C   C759      1.0  0.4448763351753882  0.7082624806336344  0.23630165225809538  1.0000
  C   C760      1.0  0.44781288751761333  0.686469747937216  0.21529467879811479  1.0000
  H   H557      1.0  0.4454375084601387  0.7076594063498932  0.2600055151922928  1.0000
  H   H558      1.0  0.4626155472201625  0.7272612284727508  0.23188648954649674  1.0000
  H   H559      1.0  0.46872030143483945  0.6908605176218285  0.21486566880474195  1.0000
  H   H560      1.0  0.44621297657007775  0.6895247953746363  0.1922951872949939  1.0000
  C   C761      1.0  0.07731329372390339  0.9454673545978408  0.05880898468238236  1.0000
  C   C762      1.0  0.050558524834343456  0.9191101891892565  0.056874754826785195  1.0000
  H   H561      1.0  0.07597828131025065  0.9587801989484955  0.04574751749216691  1.0000
  H   H562      1.0  0.09355539179250359  0.9416823149193329  0.048123933598091105  1.0000
  H   H563      1.0  0.050338495237054796  0.9064611338794519  0.07313358592908754  1.0000
  H   H564      1.0  0.05057718058650043  0.9088006376644178  0.034002559365425115  1.0000
  C   C763      1.0  0.4693474602977065  0.9781020345683004  0.22717206947356564  1.0000
  C   C764      1.0  0.47993444223303666  0.5076805214400957  0.23403042288141568  1.0000
  H   H565      1.0  0.4537171548301095  0.9699761568684016  0.2109346777046125  1.0000
  H   H566      1.0  0.45956463210424975  0.96765822676793  0.24778286191936436  1.0000
  H   H567      1.0  0.4998107278131526  0.5181068195895588  0.24279151712400626  1.0000
  H   H568      1.0  0.48205250602833066  0.5164585203487333  0.2128546146713102  1.0000
  C   C765      1.0  0.263312780509014  0.5677563506144753  0.23704086260586432  1.0000
  C   C766      1.0  0.2716980741782066  0.546450354728449  0.23600239489676297  1.0000
  H   H569      1.0  0.26916481212894555  0.5764288624583881  0.21573954496511047  1.0000
  H   H570      1.0  0.274892923767521  0.5853894415938921  0.2526290445618373  1.0000
  H   H571      1.0  0.2618145869991768  0.5347136096285302  0.2555702531056792  1.0000
  H   H572      1.0  0.2635049216816304  0.5325186343389063  0.21628647129190384  1.0000
  C   C767      1.0  0.2324421325947401  0.6497079567723534  0.22124521043446008  1.0000
  C   C768      1.0  0.2546867762043706  0.6421478029922524  0.22311802553306737  1.0000
  H   H573      1.0  0.23252600968752604  0.6555380754641404  0.19940254962663922  1.0000
  H   H574      1.0  0.23420091385612057  0.6671425032421111  0.2370609619808792  1.0000
  H   H575      1.0  0.25285068876462374  0.6273092537063921  0.2045111407762507  1.0000
  H   H576      1.0  0.25262153358802963  0.6336632319332113  0.24335876615220353  1.0000
  C   C769      1.0  0.005277380003446075  0.8533614734065109  0.22240092449781482  1.0000
  C   C770      1.0  0.49248672872091004  0.8458303336152311  0.2536630457431576  1.0000
  H   H577      1.0  0.489621781211385  0.8413092107139454  0.20603601336071178  1.0000
  H   H578      1.0  0.019647711446513456  0.8457612405954077  0.2179897816612191  1.0000
  H   H579      1.0  0.007790948528688321  0.8567292139098529  0.2701467665192374  1.0000
  H   H580      1.0  0.4868181956004925  0.8250026804180317  0.2545384851882495  1.0000
  C   C771      1.0  0.32513425679864844  0.9223660960421906  0.9121766360912869  1.0000
  C   C772      1.0  0.2978041811152381  0.8989766373911948  0.9197875994302491  1.0000
  H   H581      1.0  0.32277843516766797  0.9405491257383521  0.9166409306084774  1.0000
  H   H582      1.0  0.32961320229107977  0.9205632423214901  0.8875906339203261  1.0000
  H   H583      1.0  0.2876775511138039  0.9075307169355789  0.9378435379852694  1.0000
  H   H584      1.0  0.299566930700248  0.8847569693277642  0.9317132286057356  1.0000
  C   C773      1.0  0.47342069211069987  0.884078697072219  0.9037482981683868  1.0000
  C   C774      1.0  0.47845840931604183  0.8834678932482399  0.8695838271708977  1.0000
  H   H585      1.0  0.49252916638862565  0.8914593757659521  0.9139565474120478  1.0000
  H   H586      1.0  0.460066988918763  0.8636828237225403  0.9104726557428046  1.0000
  H   H587      1.0  0.4933182250836807  0.9034746469349881  0.8641145639029638  1.0000
  H   H588      1.0  0.4604739540014966  0.8786528419747744  0.8595118070245598  1.0000
  C   C775      1.0  0.11625218567858077  0.8215637627839724  0.8015050107316596  1.0000
  C   C776      1.0  0.13685803366769259  0.8500758342897673  0.8107842221968555  1.0000
  H   H589      1.0  0.12246587850603358  0.8146451839172123  0.7799964462018634  1.0000
  H   H590      1.0  0.11461928103793359  0.8081318533987282  0.816595174840042  1.0000
  H   H591      1.0  0.13078332124585923  0.858071213691624  0.8325965106157649  1.0000
  H   H592      1.0  0.13858681248341811  0.8636315644939938  0.795446165796623  1.0000
  C   C777      1.0  0.3967662755791644  0.877622568812114  0.8195475497033365  1.0000
  C   C778      1.0  0.4075476987390353  0.9073512223521062  0.8221202697052393  1.0000
  H   H593      1.0  0.3755585179319526  0.8670457684682791  0.8154405774086324  1.0000
  H   H594      1.0  0.39719280405109614  0.8729309377585875  0.8420499166644232  1.0000
  H   H595      1.0  0.40624278132933106  0.9151639022082504  0.8457995667366407  1.0000
  H   H596      1.0  0.429260481425051  0.9170923687051702  0.8151971516445635  1.0000
  C   C779      1.0  0.45726485982998893  0.5747057975044115  0.9751993430823412  1.0000
  C   C780      1.0  0.4720992946950929  0.5615648802689841  0.9841502647556276  1.0000
  H   H597      1.0  0.4659910880080593  0.5952614902022705  0.9855929532289168  1.0000
  H   H598      1.0  0.436384623312043  0.5653731297494676  0.984824710450571  1.0000
  H   H599      1.0  0.4933235529068714  0.5704346470266972  0.9745606296096465  1.0000
  H   H600      1.0  0.4737922456827627  0.5660409157925155  0.00851517380142508  1.0000
  C   C781      1.0  0.4669639421342039  0.6848207035648648  0.8104246667104785  1.0000
  C   C782      1.0  0.45322285757803066  0.6955270031704066  0.7934161289201216  1.0000
  H   H601      1.0  0.45050042875707896  0.6676831738023129  0.8204721209540204  1.0000
  H   H602      1.0  0.47622847198766144  0.6992797015518575  0.8303677132530056  1.0000
  H   H603      1.0  0.43256288955479855  0.6894020943367625  0.8037159419832947  1.0000
  H   H604      1.0  0.45045906875385083  0.6866538329653855  0.7696497345969892  1.0000
  C   C783      1.0  0.01616027193738277  0.9774166881586414  0.810286204349265  1.0000
  C   C784      1.0  0.48902492906501044  0.9711728168048488  0.8282505790847732  1.0000
  H   H605      1.0  0.022594418230927546  0.993589865800579  0.7960134148248204  1.0000
  H   H606      1.0  0.032837375547886585  0.9851369174179755  0.8254210337354582  1.0000
  H   H607      1.0  0.48545146534970707  0.9614789384711758  0.8482829561829218  1.0000
  H   H608      1.0  0.4729070471890495  0.9564316247152003  0.8139666232408758  1.0000
  C   C785      1.0  0.1425890087418415  0.7329138815716814  0.7915826192659877  1.0000
  C   C786      1.0  0.1702492024733856  0.7350176039407554  0.7897156106534959  1.0000
  H   H609      1.0  0.13857605227976055  0.7380289260600376  0.815715268867169  1.0000
  H   H610      1.0  0.1437355515204788  0.7491361067922613  0.7806396262023392  1.0000
  H   H611      1.0  0.17377682157599358  0.7270886863069776  0.7670948807062107  1.0000
  H   H612      1.0  0.1711328293076817  0.7235287167389128  0.805799577193169  1.0000
  C   C787      1.0  0.3817703606303435  0.546784426071898  0.7754249550179271  1.0000
  C   C788      1.0  0.3725877991770091  0.5268510429642965  0.7467967452050878  1.0000
  H   H613      1.0  0.3643651370318584  0.5414983531003067  0.7917076820438581  1.0000
  H   H614      1.0  0.3862082981394602  0.5659989077306736  0.7691383171660553  1.0000
  H   H615      1.0  0.3893803609908631  0.5347119418592146  0.7292566906087822  1.0000
  H   H616      1.0  0.35626484722805124  0.5276346174200858  0.7377944584623187  1.0000
  C   C789      1.0  0.37027321272151076  0.8541507421791183  0.4330856999730758  1.0000
  C   C790      1.0  0.3939271238077982  0.8643515854806212  0.45225157068169475  1.0000
  H   H617      1.0  0.3623186468479859  0.8680470153361886  0.4361743039336934  1.0000
  H   H618      1.0  0.35360240350802985  0.8364790282570116  0.44238277754939614  1.0000
  H   H619      1.0  0.40418310996177564  0.8526162239476643  0.4456455760934758  1.0000
  H   H620      1.0  0.38612993753323266  0.8586075614877576  0.4751224261847205  1.0000
  C   C791      1.0  0.4196074515804581  0.5474357930341682  0.4661179061780611  1.0000
  C   C792      1.0  0.4269558805747902  0.5680611950044518  0.44457137616212583  1.0000
  H   H621      1.0  0.39817712317417114  0.5334229753750704  0.4645568547185732  1.0000
  H   H622      1.0  0.4214495607433168  0.5567823977492178  0.4890736257089273  1.0000
  H   H623      1.0  0.44866780280925733  0.5828055414416566  0.44512522560697987  1.0000
  H   H624      1.0  0.4160704807208577  0.5789677310908722  0.45229176943172456  1.0000
  C   C793      1.0  0.05048522611769687  0.5194932132661242  0.35854828436239444  1.0000
  C   C794      1.0  0.07766588186774889  0.5209440725096717  0.359240596168462  1.0000
  H   H625      1.0  0.04172391136529928  0.5085478172572535  0.33690125747138494  1.0000
  H   H626      1.0  0.05437718894546071  0.5400814015197243  0.3589860040849404  1.0000
  H   H627      1.0  0.07391229690227039  0.5021001079623046  0.36486842117262425  1.0000
  H   H628      1.0  0.08812177107840151  0.5352792153582419  0.37762035798761073  1.0000
  C   C795      1.0  0.3406566391564212  0.8604923884643318  0.6231811223358872  1.0000
  C   C796      1.0  0.35134303918396675  0.8788563991295205  0.5977353135670682  1.0000
  H   H629      1.0  0.354127401777351  0.8514926665593556  0.6214503428207184  1.0000
  H   H630      1.0  0.320902495028153  0.8435153321464793  0.6193220423330332  1.0000
  H   H631      1.0  0.3448648944828677  0.8652720814195097  0.5776292387605316  1.0000
  H   H632      1.0  0.34070127424986746  0.8904548929860233  0.599345496832148  1.0000
  C   C797      1.0  0.01346653424964784  0.5494232154542749  0.6657225661867942  1.0000
  C   C798      1.0  0.02869782605360521  0.5757923736628986  0.6511862515232657  1.0000
  H   H633      1.0  0.49860098320959906  0.5504488081830571  0.6828271343244442  1.0000
  H   H634      1.0  0.027578920710582547  0.5480707402409802  0.6788273586964861  1.0000
  H   H635      1.0  0.046740131702700576  0.5767584215091789  0.6376727717216049  1.0000
  H   H636      1.0  0.01638582485118111  0.5764376902419667  0.6352496804003684  1.0000
  C   C799      1.0  0.49579618656641133  0.8608424763627952  0.6108490391323224  1.0000
  C   C800      1.0  0.476951782396264  0.8625139462666295  0.5921231214101399  1.0000
  H   H637      1.0  0.016400554304592963  0.8747441885487157  0.6031331123905047  1.0000
  H   H638      1.0  0.49384829005105985  0.8409124851985638  0.6040733164884223  1.0000
  H   H639      1.0  0.4560583181124764  0.8495812191645342  0.5980256378728385  1.0000
  H   H640      1.0  0.48014515803498925  0.8534533293929016  0.5699200118103858  1.0000
  C   C801      1.0  0.9136268807778594  0.3941588679886047  0.4539332183912718  1.0000
  C   C802      1.0  0.9393547852495243  0.40353510966594147  0.44238277754939614  1.0000
  C   C803      1.0  0.9561908840075486  0.42992089412196105  0.44309295546658795  1.0000
  C   C804      1.0  0.9477830658473331  0.44844323990094964  0.4544022038082854  1.0000
  C   C805      1.0  0.9212633059258318  0.4383210163982131  0.4668303173591435  1.0000
  C   C806      1.0  0.9052038224962797  0.4112833393318192  0.46808987819340836  1.0000
  H   H641      1.0  0.9451723473933259  0.3895171512896853  0.4308144705963961  1.0000
  H   H642      1.0  0.9761095195500974  0.4353366304334007  0.43292043844517586  1.0000
  H   H643      1.0  0.9132510753904732  0.4510192230515338  0.4764221857690151  1.0000
  H   H644      1.0  0.8852770193084948  0.4043177289083718  0.4778269087561652  1.0000
  C   C807      1.0  0.9362819810601684  0.4922225101641933  0.43987258893642855  1.0000
  C   C808      1.0  0.9587944338697428  0.4997504741071911  0.4542749077665245  1.0000
  C   C809      1.0  0.9715455266051509  0.025250174766165666  0.4681345434712192  1.0000
  C   C810      1.0  0.9605908319207793  0.041563731698584065  0.4706000668063759  1.0000
  C   C811      1.0  0.935998671077791  0.032414267470755154  0.45982233527062727  1.0000
  C   C812      1.0  0.9242953183874336  0.007718273013238542  0.44334978081400017  1.0000
  C   C813      1.0  0.9684003573464101  0.4791134707398685  0.45750867388002725  1.0000
  C   C814      1.0  0.9918229404759988  0.48682561895888354  0.4317033096248312  1.0000
  C   C815      1.0  0.5168200431440063  0.007444071728225154  0.437581260184734  1.0000
  C   C816      1.0  0.5357531516493711  0.018701132919683554  0.41489129905684197  1.0000
  C   C817      1.0  0.5310591969076238  0.00819810727958605  0.3857181728547108  1.0000
  C   C818      1.0  0.506598316072648  0.4866524226277184  0.37937570340557564  1.0000
  C   C819      1.0  0.9868146960707386  0.47680131807308956  0.4020656645334676  1.0000
  C   C820      1.0  0.9585081471051595  0.48470011872860363  0.5150062860058842  1.0000
  C   C821      1.0  0.958044992601937  0.47857859184970825  0.5428662530403775  1.0000
  C   C822      1.0  0.9735365951386534  0.4684313910660049  0.5489384975587573  1.0000
  C   C823      1.0  0.9932565525162698  0.46907639596763934  0.5270011463619775  1.0000
  C   C824      1.0  0.9930057396869585  0.4739617486512296  0.4979285170349206  1.0000
  C   C825      1.0  0.9746779529462144  0.4809118673601067  0.49111706216877193  1.0000
  C   C826      1.0  0.9664169349064001  0.4548735866211347  0.5792371887617209  1.0000
  C   C827      1.0  0.8810066932443283  0.3985977491108579  0.5927171696050236  1.0000
  C   C828      1.0  0.8955543115023733  0.4138826644668874  0.616805153928394  1.0000
  C   C829      1.0  0.9221064713687859  0.4312101392488506  0.6133301953147129  1.0000
  C   C830      1.0  0.9350420973397484  0.43541798039474017  0.5845813892517845  1.0000
  C   C831      1.0  0.9202624915954107  0.42100636810999764  0.5606653662479857  1.0000
  C   C832      1.0  0.894092463793616  0.40274468562378773  0.5644127830563127  1.0000
  C   C833      1.0  0.9788565693458713  0.48051170900681256  0.6025345976678399  1.0000
  C   C834      1.0  0.5056700692051709  0.49244813330567094  0.6080931914913953  1.0000
  C   C835      1.0  0.5163145040804298  0.01407410611496749  0.6285588217843089  1.0000
  C   C836      1.0  0.5009729277614322  0.02476913588917826  0.6430884366561657  1.0000
  C   C837      1.0  0.974770294976512  0.014024808641521974  0.6371211555406414  1.0000
  C   C838      1.0  0.9644536068528041  0.4929780722328384  0.616231205108525  1.0000
  C   C839      1.0  0.9792060119424237  0.42888747110471037  0.6100003988539169  1.0000
  C   C840      1.0  0.9814122775507397  0.40722863103324736  0.6133837936480859  1.0000
  C   C841      1.0  0.9815631587654838  0.39030631871467536  0.589099282102348  1.0000
  C   C842      1.0  0.9810000386843937  0.39588894151300813  0.5613487449984911  1.0000
  C   C843      1.0  0.9767823200979588  0.41630539033278413  0.5577732895097357  1.0000
  C   C844      1.0  0.9758691479685846  0.43338411893443535  0.581803208971952  1.0000
  H   H645      1.0  0.9272377287618735  0.4729312267957731  0.4274400088577893  1.0000
  H   H646      1.0  0.989844518053895  0.0313579770670067  0.47800333660351785  1.0000
  H   H647      1.0  0.9711750203812125  0.06130982778033413  0.4814715954255273  1.0000
  H   H648      1.0  0.9051298581632178  0.0005376525423192369  0.43415989990442583  1.0000
  H   H649      1.0  0.5204551552938164  0.015446844128758507  0.46073574020185837  1.0000
  H   H650      1.0  0.5551992759730341  0.03532967896114474  0.420592821769392  1.0000
  H   H651      1.0  0.5021655022173492  0.4781971241290874  0.3572552245697715  1.0000
  H   H652      1.0  0.966389096764047  0.4622751235754041  0.3976438020301973  1.0000
  H   H653      1.0  0.9436039062764773  0.48937138941421765  0.510423628502495  1.0000
  H   H654      1.0  0.9425712556887507  0.4792831258120497  0.5589948848578614  1.0000
  H   H655      1.0  0.5074658900476915  0.4630651550425808  0.5312220151150991  1.0000
  H   H656      1.0  0.5060569605784462  0.4710526692875757  0.48091327945289214  1.0000
  H   H657      1.0  0.8860399338827711  0.41268817065085933  0.6388430020002481  1.0000
  H   H658      1.0  0.9323323809860177  0.4421028305031237  0.6333960713712197  1.0000
  H   H659      1.0  0.9292268860578206  0.4218123885462407  0.5377766446338357  1.0000
  H   H660      1.0  0.8840097023016402  0.3918293064313767  0.5440990147079559  1.0000
  H   H661      1.0  0.5183025897612044  0.48468496217766827  0.5951357943984791  1.0000
  H   H662      1.0  0.5373619175082224  0.023010365159399047  0.633380438523986  1.0000
  H   H663      1.0  0.9630189082402469  0.023175129145481924  0.6486336308963779  1.0000
  H   H664      1.0  0.9437142346888812  0.48582325419747413  0.614082805245825  1.0000
  H   H665      1.0  0.978783992421037  0.4414045451168733  0.6301846378966224  1.0000
  H   H666      1.0  0.9828229816594433  0.4036866362615729  0.635363576858786  1.0000
  H   H667      1.0  0.980031355042695  0.3823753183753784  0.5422498722065884  1.0000
  H   H668      1.0  0.9719563689153901  0.4177018716779258  0.53655504928571  1.0000
  C   C845      1.0  0.9577165505611137  0.07390689802517081  0.9414547256962734  1.0000
  C   C846      1.0  0.9815684596578508  0.08933740634634103  0.926563322074149  1.0000
  C   C847      1.0  0.9842824183577458  0.08545933881873095  0.8957822458708288  1.0000
  C   C848      1.0  0.9636151731882133  0.06754880923121931  0.8790975313446002  1.0000
  C   C849      1.0  0.9390849849284997  0.05283796787879195  0.8949135062174085  1.0000
  C   C850      1.0  0.936591193306041  0.0558890598850854  0.925761580337445  1.0000
  H   H669      1.0  0.9982533544463555  0.10386700270183809  0.939531885486518  1.0000
  H   H670      1.0  0.5039795271119852  0.09556194209201806  0.8857526577384112  1.0000
  H   H671      1.0  0.9217131476848062  0.037293772925973946  0.8837293206535813  1.0000
  H   H672      1.0  0.9182520406922285  0.042803787419524675  0.9371154939569533  1.0000
  C   C851      1.0  0.9314582854466938  0.07063198322204992  0.834112896797442  1.0000
  C   C852      1.0  0.9458508627767136  0.05750578074075057  0.8253272366520555  1.0000
  C   C853      1.0  0.9396560661574068  0.040444832137703356  0.7991243514243433  1.0000
  C   C854      1.0  0.9204373139798826  0.03715994742324731  0.7816847937031121  1.0000
  C   C855      1.0  0.9058007534177506  0.050265201780069164  0.791071201835054  1.0000
  C   C856      1.0  0.911364371106521  0.0667715584509348  0.8176626749797204  1.0000
  C   C857      1.0  0.9690194480788952  0.0617802204455213  0.8445154399995799  1.0000
  C   C858      1.0  0.9730148654925933  0.036705819732323494  0.8446472025691217  1.0000
  C   C859      1.0  0.9985216102887959  0.040595281489970735  0.8462730186814352  1.0000
  C   C860      1.0  0.5039949313936769  0.020047687928740145  0.8414447021500866  1.0000
  C   C861      1.0  0.9836812260388859  0.49491175085614925  0.83707867124408  1.0000
  C   C862      1.0  0.9575614465584688  0.4904306637465683  0.840723357913442  1.0000
  C   C863      1.0  0.9523654512522662  0.011225539323677975  0.8434747390265881  1.0000
  C   C864      1.0  0.5038250924985095  0.07759249228617052  0.7999662919110772  1.0000
  C   C865      1.0  0.5197829882031232  0.09533108382227685  0.780222005854808  1.0000
  C   C866      1.0  0.5260430912351005  0.12171977833037628  0.7865667085678338  1.0000
  C   C867      1.0  0.5167344702636744  0.12860845084146613  0.8147705982414705  1.0000
  C   C868      1.0  0.9995227462908226  0.11053580715859909  0.8336394448526474  1.0000
  C   C869      1.0  0.9924478584826971  0.08457476402166995  0.8264662012362313  1.0000
  C   C870      1.0  0.5394608226540364  0.14291376124842947  0.7622799637582054  1.0000
  C   C871      1.0  0.5353879838132778  0.09792870186360346  0.6757030225136199  1.0000
  C   C872      1.0  0.5220247612921854  0.11193794409297425  0.6804933735588293  1.0000
  C   C873      1.0  0.524962889645241  0.1284120294327534  0.7062942712862443  1.0000
  C   C874      1.0  0.5397138216905558  0.12932843228496846  0.7284281497053916  1.0000
  C   C875      1.0  0.5557925071484194  0.11762640606574165  0.7206965901163404  1.0000
  C   C876      1.0  0.5532637696197699  0.10187246048573531  0.6950162886390145  1.0000
  C   C877      1.0  0.5700545541673178  0.16356910298338814  0.7656901577190607  1.0000
  C   C878      1.0  0.5835361290599339  0.1639190951260666  0.7893404223198852  1.0000
  C   C879      1.0  0.6073563211457494  0.18548940817514392  0.796937986075504  1.0000
  C   C880      1.0  0.618967484295355  0.20683408690816435  0.7805770948134041  1.0000
  C   C881      1.0  0.6083605668634882  0.20455518336721648  0.7544501405579702  1.0000
  C   C882      1.0  0.5844898073198164  0.18291255495696135  0.7469396740940824  1.0000
  C   C883      1.0  0.5309871126942346  0.1832808360897821  0.7816579945364257  1.0000
  C   C884      1.0  0.5142434992783211  0.19312740697343472  0.7940481426011446  1.0000
  C   C885      1.0  0.9870019155744634  0.17737844559250524  0.7921074362802649  1.0000
  C   C886      1.0  0.9778753562609221  0.153850950151519  0.7756840136292296  1.0000
  C   C887      1.0  0.9940204986362783  0.14303964802444885  0.7650000791768837  1.0000
  C   C888      1.0  0.5215734673193305  0.1575203059503222  0.7678742898040093  1.0000
  H   H673      1.0  0.9360819479687197  0.08391590508307925  0.8536226901452043  1.0000
  H   H674      1.0  0.9491506529901738  0.028487203373214882  0.7911292666962081  1.0000
  H   H675      1.0  0.9167404346112379  0.023791554582122336  0.761547453202108  1.0000
  H   H676      1.0  0.9001573469225725  0.07779791806611241  0.8243513003318893  1.0000
  H   H677      1.0  0.5152019386624807  0.06038441151026287  0.8484750168775084  1.0000
  H   H678      1.0  0.5245592890122099  0.024031985433984753  0.8405871288161191  1.0000
  H   H679      1.0  0.9411089936638426  0.4698350289758686  0.8379228449947042  1.0000
  H   H680      1.0  0.9323559470932588  0.007423364379946637  0.8424675370119542  1.0000
  H   H681      1.0  0.9969730821501067  0.057225652675066574  0.7917545805855596  1.0000
  H   H682      1.0  0.5242391072928255  0.08756242606545911  0.7584878816720675  1.0000
  H   H683      1.0  0.5219019115570445  0.14882575759629485  0.8224530260249298  1.0000
  H   H684      1.0  0.9912286523569601  0.1177988938549404  0.853633856464657  1.0000
  H   H685      1.0  0.5086099276656173  0.11073751968457311  0.6649654897279009  1.0000
  H   H686      1.0  0.5130858031902963  0.13836103012808706  0.7102181159419241  1.0000
  H   H687      1.0  0.5691854314975241  0.11883979639120489  0.7359051172109214  1.0000
  H   H688      1.0  0.5650075267478725  0.09161616699750222  0.6908959167609672  1.0000
  H   H689      1.0  0.5744411080715168  0.14806774122306096  0.8036355444832352  1.0000
  H   H690      1.0  0.6155589675179206  0.18680691985755501  0.8169189981041703  1.0000
  H   H691      1.0  0.6176458722114195  0.2214639021484451  0.7413989463816512  1.0000
  H   H692      1.0  0.5760300627759849  0.18205582367973305  0.7268045668569687  1.0000
  H   H693      1.0  0.5520221313989829  0.1971395321274888  0.7852111173862756  1.0000
  H   H694      1.0  0.523458735881865  0.21236777693646564  0.8062573962907299  1.0000
  H   H695      1.0  0.9565154931044317  0.14084067682580123  0.7748398398786054  1.0000
  H   H696      1.0  0.985096149493816  0.12260536869914943  0.7554997745865242  1.0000
  C   C889      1.0  0.9910627297534844  0.3643723448074349  0.6452122706160698  1.0000
  C   C890      1.0  0.5121052230063347  0.38288623814837747  0.6610394118083306  1.0000
  C   C891      1.0  0.5085548543486968  0.3865256007133112  0.6918606867616808  1.0000
  C   C892      1.0  0.9852181908672495  0.3706414892453225  0.7075203331621511  1.0000
  C   C893      1.0  0.9643146685250213  0.3507114644904802  0.6912889712057023  1.0000
  C   C894      1.0  0.9673202261312946  0.3479423216973868  0.6602644692383131  1.0000
  H   H697      1.0  0.5314302667446806  0.3950345160187268  0.6495113036053604  1.0000
  H   H698      1.0  0.5256775506585522  0.4014026947276026  0.703190034478393  1.0000
  H   H699      1.0  0.9463766419721495  0.3365925642660168  0.7028215459364537  1.0000
  H   H700      1.0  0.9507201764809631  0.3321804814535134  0.6484460367295725  1.0000
  C   C895      1.0  0.9375018937973539  0.3723061630951973  0.748525291456366  1.0000
  C   C896      1.0  0.955232495021267  0.367211565742582  0.7600935984093661  1.0000
  C   C897      1.0  0.9499618870989642  0.36093149344100733  0.7892734244031689  1.0000
  C   C898      1.0  0.9292047500710157  0.3615466145327734  0.8073918943471243  1.0000
  C   C899      1.0  0.9132764966117991  0.36884782763303287  0.7964980330890675  1.0000
  C   C900      1.0  0.9165250854449103  0.372725168352608  0.7665499643169188  1.0000
  C   C901      1.0  0.9841017400281462  0.3739954650089018  0.7427791034660052  1.0000
  C   C902      1.0  0.5000434357199941  0.40404540128687816  0.7578692675743877  1.0000
  C   C903      1.0  0.5101322426447744  0.4102432327809258  0.7861446216925215  1.0000
  C   C904      1.0  0.5172283442124833  0.4345208432429907  0.8023246185794878  1.0000
  C   C905      1.0  0.514141872343043  0.45279491283597845  0.7908367091265474  1.0000
  C   C906      1.0  0.5057303002716276  0.4479173217106672  0.762344728411031  1.0000
  C   C907      1.0  0.998723559716876  0.42380606677266747  0.7465309868021133  1.0000
  C   C908      1.0  0.9758373381425369  0.32793820085288233  0.7499635134018742  1.0000
  C   C909      1.0  0.9821921905837941  0.3119170339841603  0.7624608581333391  1.0000
  C   C910      1.0  0.5064097740989776  0.3224325672190427  0.7742011264059108  1.0000
  C   C911      1.0  0.5259258739051362  0.34773757454484316  0.7674566694564784  1.0000
  C   C912      1.0  0.5196946216053904  0.36278960007299665  0.753697530626858  1.0000
  C   C913      1.0  0.9939936277245165  0.3545740396461285  0.7484113949979485  1.0000
  C   C914      1.0  0.5106750554054875  0.31078840983697226  0.8006072386476623  1.0000
  C   C915      1.0  0.9879038556288937  0.3635133245686395  0.8570328841060596  1.0000
  C   C916      1.0  0.9691250810856104  0.33780196208599583  0.8502236625038015  1.0000
  C   C917      1.0  0.9765585873349766  0.32017326450742106  0.8351893299926826  1.0000
  C   C918      1.0  0.5032536854993943  0.32785746332453697  0.8274555371397407  1.0000
  C   C919      1.0  0.5222302403071931  0.35325444720200455  0.8377665165223664  1.0000
  C   C920      1.0  0.5146484596543786  0.37138728420663775  0.8519700748662042  1.0000
  C   C921      1.0  0.5396534196691746  0.31463391812868813  0.8002566162168473  1.0000
  C   C922      1.0  0.5535038187273914  0.3127848656212691  0.7740559642530256  1.0000
  C   C923      1.0  0.5786438026834767  0.3162451324439106  0.7738929359890161  1.0000
  C   C924      1.0  0.5895645220949431  0.31979622377490335  0.8005268411476026  1.0000
  C   C925      1.0  0.5750217785597508  0.3203452944809022  0.8271227808200501  1.0000
  C   C926      1.0  0.5497473088090166  0.31648464353523387  0.8269664523477123  1.0000
  C   C927      1.0  0.9811344689197304  0.26662532470897526  0.8237259864425379  1.0000
  C   C928      1.0  0.9680046244362294  0.23959448382962018  0.8218522780383745  1.0000
  C   C929      1.0  0.9686498855256724  0.22517163949010918  0.7957431898940649  1.0000
  C   C930      1.0  0.9818526475632839  0.2377303079993395  0.7710008592507661  1.0000
  C   C931      1.0  0.9929351481779091  0.26430585618593855  0.771876298695858  1.0000
  C   C932      1.0  0.9933828523854376  0.27974525938229183  0.7984633053127432  1.0000
  H   H701      1.0  0.9407213898744272  0.3784652816941144  0.7265187090789795  1.0000
  H   H702      1.0  0.964043613246387  0.3577909253374269  0.7986709988545636  1.0000
  H   H703      1.0  0.9270378208021706  0.35750222036321583  0.8307764005449745  1.0000
  H   H704      1.0  0.903662057275346  0.37751344371898093  0.7574829129213242  1.0000
  H   H705      1.0  0.5089104935414148  0.39524173815542757  0.7975744662843082  1.0000
  H   H706      1.0  0.5248373469359068  0.4387675081628604  0.8240297103316515  1.0000
  H   H707      1.0  0.501034185381867  0.4613016765603382  0.7538851247936634  1.0000
  H   H708      1.0  0.9906107997503706  0.4204461075498616  0.7249308584528051  1.0000
  H   H709      1.0  0.9560427439287823  0.3197370747473675  0.7425513105491701  1.0000
  H   H710      1.0  0.9660774428153096  0.2933845159141861  0.7683075429987744  1.0000
  H   H711      1.0  0.5459785412978392  0.35794454922653585  0.7751212311288134  1.0000
  H   H712      1.0  0.5347129724655282  0.3825907996124697  0.7503364684715944  1.0000
  H   H713      1.0  0.9475735769403507  0.33099674103707416  0.855480765702134  1.0000
  H   H714      1.0  0.9604019725273332  0.3012417435134236  0.8279468551956596  1.0000
  H   H715      1.0  0.5435339944571528  0.36116775940156315  0.8320024624208813  1.0000
  H   H716      1.0  0.528870148384467  0.39147134746433593  0.8573343747312826  1.0000
  H   H717      1.0  0.5449899226909662  0.30876855851103757  0.7531816466681431  1.0000
  H   H718      1.0  0.5902421087142802  0.31596910981907533  0.7533111759737945  1.0000
  H   H719      1.0  0.5827885480323977  0.3212601390365832  0.8478117375020177  1.0000
  H   H720      1.0  0.5378881378459638  0.31687240656369137  0.8485129823636476  1.0000
  H   H721      1.0  0.982552542020695  0.2778667747730385  0.8458330656949988  1.0000
  H   H722      1.0  0.9583431006999654  0.2306477820556019  0.841880188608742  1.0000
  H   H723      1.0  0.9821965706458399  0.22638502041023034  0.7497826190267404  1.0000
  H   H724      1.0  0.5032170053649133  0.2742906289116386  0.7525250670843241  1.0000
  C   C933      1.0  0.782341455698906  0.38716155911043054  0.8921621251042625  1.0000
  C   C934      1.0  0.7796621546717932  0.3637922140623083  0.8787558419693476  1.0000
  C   C935      1.0  0.7654310868444916  0.35168954205736797  0.85434850090963  1.0000
  C   C936      1.0  0.753224547742533  0.3624471361409334  0.8419471865254583  1.0000
  C   C937      1.0  0.7562636194427784  0.3865526897465939  0.8548599183405637  1.0000
  C   C938      1.0  0.7704495861824713  0.39861339579386706  0.8800466684980801  1.0000
  H   H725      1.0  0.7896435218038876  0.3549884251516854  0.8873405083645854  1.0000
  H   H726      1.0  0.764935229103404  0.3336469621420985  0.8437136982628759  1.0000
  H   H727      1.0  0.7466276257336065  0.3954594804972473  0.8453730133335475  1.0000
  H   H728      1.0  0.7716067723590341  0.41737004238700554  0.8898819626720206  1.0000
  C   C939      1.0  0.6961985746298823  0.35187160523163363  0.8394548640236151  1.0000
  C   C940      1.0  0.7112420376157036  0.350780853394234  0.813343542615415  1.0000
  C   C941      1.0  0.7014897430307627  0.348866715510385  0.7862183194009095  1.0000
  C   C942      1.0  0.6789426425441929  0.35037938124390006  0.7853294803724744  1.0000
  C   C943      1.0  0.6647337275620424  0.35276741931409694  0.8120192171283244  1.0000
  C   C944      1.0  0.6728351584534928  0.35263561764067386  0.8388809152037462  1.0000
  C   C945      1.0  0.737546319832415  0.3483107934086609  0.8127360948371879  1.0000
  C   C946      1.0  0.7238249443001477  0.3169023144431075  0.8069206756662204  1.0000
  C   C947      1.0  0.7201619955895272  0.30436434342128005  0.7780133078670635  1.0000
  C   C948      1.0  0.7038701662019943  0.27827283131337816  0.7725998761963933  1.0000
  C   C949      1.0  0.6908709457013724  0.2635467872348675  0.7958905853108406  1.0000
  C   C950      1.0  0.6944462626250223  0.2747373370146022  0.8247666874155298  1.0000
  C   C951      1.0  0.7108741356756847  0.3016655563125151  0.8305285082531244  1.0000
  C   C952      1.0  0.7660352826621085  0.38633261564057214  0.7790115768261351  1.0000
  C   C953      1.0  0.788368195889555  0.4005055552828841  0.7615809521604662  1.0000
  C   C954      1.0  0.8086730409138339  0.39421841815028996  0.7560000256980052  1.0000
  C   C955      1.0  0.8026194386958004  0.36924729616207297  0.7624653246611202  1.0000
  C   C956      1.0  0.7800278751355707  0.3543256103685974  0.7788865140482649  1.0000
  C   C957      1.0  0.7611540276828356  0.36261088575785133  0.7882639891246446  1.0000
  C   C958      1.0  0.8386372631543373  0.41391660262967567  0.7442351915226377  1.0000
  C   C959      1.0  0.8377322195287925  0.37304067743188846  0.6546344109702603  1.0000
  C   C960      1.0  0.8250229260861074  0.3881695845540433  0.6616289934754334  1.0000
  C   C961      1.0  0.8254775393963955  0.40061795705191783  0.6898775484268806  1.0000
  C   C962      1.0  0.8395110134834273  0.39954211003854023  0.7113548472622091  1.0000
  C   C963      1.0  0.850899714832524  0.38336382082035986  0.7039292448261618  1.0000
  C   C964      1.0  0.8503974502400437  0.3699796024428326  0.6761273426528226  1.0000
  C   C965      1.0  0.8596874378234977  0.4168982668332423  0.7662909057056162  1.0000
  C   C966      1.0  0.8867721834189556  0.42532022789239365  0.7574829129213242  1.0000
  C   C967      1.0  0.9028498462258625  0.42396529606776173  0.7755053525179865  1.0000
  C   C968      1.0  0.8930115880274484  0.4159461017961372  0.8036333112193446  1.0000
  C   C969      1.0  0.8678668007248104  0.4115144661442338  0.814227915116069  1.0000
  C   C970      1.0  0.8514175644164864  0.4124440481568368  0.7960402139915068  1.0000
  C   C971      1.0  0.8624397029075175  0.45880763157669496  0.7227288602567322  1.0000
  C   C972      1.0  0.8706857892376438  0.4850799756517241  0.7236936302574457  1.0000
  C   C973      1.0  0.8631842570785733  0.4976065005250206  0.747946876108716  1.0000
  C   C974      1.0  0.8481034752661539  0.48383376628907904  0.7714832442511228  1.0000
  C   C975      1.0  0.8401176156063039  0.45746700568956145  0.7700204564028188  1.0000
  C   C976      1.0  0.846483554899451  0.44386828882472723  0.7454456205513106  1.0000
  H   H729      1.0  0.7018158339090388  0.3518879208466114  0.8607847674421677  1.0000
  H   H730      1.0  0.7115369219628565  0.3450565222687634  0.7652055394548135  1.0000
  H   H731      1.0  0.6710290231005571  0.3474985309474949  0.7642899012596918  1.0000
  H   H732      1.0  0.6604425245768333  0.35216896719624924  0.8593733446633463  1.0000
  H   H733      1.0  0.7295226873880782  0.31592274994350944  0.7590796966030606  1.0000
  H   H734      1.0  0.7003598868567863  0.26946652567547613  0.748992043609489  1.0000
  H   H735      1.0  0.6844596137207394  0.26333133205460396  0.8442385152771529  1.0000
  H   H736      1.0  0.7115569854019318  0.3108880931135099  0.853497627367334  1.0000
  H   H737      1.0  0.7521239403166521  0.3934348815038371  0.7849185598166148  1.0000
  H   H738      1.0  0.7910066529098748  0.41804998431091683  0.7547136656970539  1.0000
  H   H739      1.0  0.817210093975008  0.36279698264024274  0.7580255960467256  1.0000
  H   H740      1.0  0.7772911233618296  0.33673103954933425  0.7864438790538542  1.0000
  H   H741      1.0  0.8150763415163572  0.3912881628407212  0.645118473532667  1.0000
  H   H742      1.0  0.8151674345226118  0.41190454009678096  0.6940559851660821  1.0000
  H   H743      1.0  0.8606836346012464  0.38046976105388974  0.7199261140741038  1.0000
  H   H744      1.0  0.8585506230988129  0.3564327079660082  0.6726300514002361  1.0000
  H   H745      1.0  0.8942127981971228  0.4307251193849062  0.7348979151962877  1.0000
  H   H746      1.0  0.9230330911542598  0.42787023792326534  0.7671172133451162  1.0000
  H   H747      1.0  0.859117614004213  0.4053050224191016  0.8355779179096366  1.0000
  H   H748      1.0  0.8324773964103961  0.4097977172804425  0.8059715385127405  1.0000
  H   H749      1.0  0.8693801915658885  0.44985212023244864  0.7030828378116469  1.0000
  H   H750      1.0  0.8838036719566918  0.4956569245731073  0.7050883087853523  1.0000
  H   H751      1.0  0.8410039571158627  0.493447262408261  0.7904235553067973  1.0000
  H   H752      1.0  0.8291170922542646  0.44750025753011463  0.7900595332926391  1.0000
  C   C977      1.0  0.5823552856725508  0.4571593660462356  0.09162099106776032  1.0000
  C   C978      1.0  0.575794354627877  0.4761778813035907  0.10510722504995657  1.0000
  C   C979      1.0  0.5718110098151219  0.4799120579782777  0.1354063629056983  1.0000
  C   C980      1.0  0.5733269746008629  0.4635441820645731  0.15290912199503173  1.0000
  C   C981      1.0  0.5845122247660129  0.44755638187544566  0.1393688430266844  1.0000
  C   C982      1.0  0.5892538856525272  0.44487601120395853  0.10912218687237037  1.0000
  H   H753      1.0  0.5701253345483988  0.48578534651301764  0.09132352031754032  1.0000
  H   H754      1.0  0.5654390889860568  0.49463857573022024  0.14460115699583184  1.0000
  H   H755      1.0  0.587930839567937  0.4359545993690087  0.15208705755692375  1.0000
  H   H756      1.0  0.5951755119861954  0.430105173767415  0.09908187907327817  1.0000
  C   C983      1.0  0.5310284074437641  0.41191727482687196  0.1804088635639809  1.0000
  C   C984      1.0  0.5489000940131141  0.4332748094813135  0.19829998724387932  1.0000
  C   C985      1.0  0.5515890594147131  0.4280224511364889  0.2260733036394197  1.0000
  C   C986      1.0  0.538412607737663  0.4029459703935548  0.23454630684013053  1.0000
  C   C987      1.0  0.5207688527177519  0.3825138605086964  0.21575316787484278  1.0000
  C   C988      1.0  0.5168753462449228  0.38707434382250944  0.18880839238269295  1.0000
  C   C989      1.0  0.5619330350952595  0.4618151814918983  0.18797471497235416  1.0000
  C   C990      1.0  0.5367713059585822  0.46649457196215227  0.1973541999862354  1.0000
  C   C991      1.0  0.5331039536897836  0.47549483863757025  0.2270939052373967  1.0000
  C   C992      1.0  0.5109325098049562  0.4782696440406236  0.23739148503667917  1.0000
  C   C993      1.0  0.992435643120182  0.47298535784513535  0.2168992789034682  1.0000
  C   C994      1.0  0.9957708550339088  0.4633901031202738  0.18810759417384132  1.0000
  C   C995      1.0  0.5169253378245906  0.45912359158329163  0.17835158086801492  1.0000
  C   C996      1.0  0.6069641678583862  0.4814619642210955  0.21165512863570085  1.0000
  C   C997      1.0  0.6274476973658643  0.0011117083600574284  0.22707380586238185  1.0000
  C   C998      1.0  0.6315761468311553  0.026874621645422866  0.23056663058718727  1.0000
  C   C999      1.0  0.6144174732870391  0.031658002860278554  0.21698056970908383  1.0000
  C   C1000     1.0  0.5938092309426455  0.011325961513888866  0.20177673246867284  1.0000
  C   C1001     1.0  0.5880853004388856  0.4853538633727028  0.20167310902415175  1.0000
  C   C1002     1.0  0.6529795303543587  0.04912085595930154  0.2523275539366144  1.0000
  C   C1003     1.0  0.5970066459644623  0.02825648116994394  0.3313806291339687  1.0000
  C   C1004     1.0  0.6151234167551143  0.018592090865488197  0.32458704037894437  1.0000
  C   C1005     1.0  0.6331185929971636  0.025595338270343455  0.30008366897193345  1.0000
  C   C1006     1.0  0.6349998857272767  0.04386573862623423  0.28309299729270093  1.0000
  C   C1007     1.0  0.6174250444823687  0.05408031516598486  0.29065706208996184  1.0000
  C   C1008     1.0  0.5982368960240494  0.04592997692293861  0.31427606099631866  1.0000
  C   C1009     1.0  0.666032658426748  0.07831182981918537  0.24412924219444002  1.0000
  C   C1010     1.0  0.6737606962935755  0.08265222714617985  0.21444894176276708  1.0000
  C   C1011     1.0  0.6929292558140314  0.1064737377556708  0.207061528139248  1.0000
  C   C1012     1.0  0.7058948842552166  0.12646894838386044  0.22853212718290483  1.0000
  C   C1013     1.0  0.696243543816478  0.1236168438740613  0.2580625756075225  1.0000
  C   C1014     1.0  0.6764838616920447  0.10006598799976944  0.2654703119324455  1.0000
  C   C1015     1.0  0.6970442409594819  0.05868669988773426  0.274450266036309  1.0000
  C   C1016     1.0  0.7229381390676546  0.06379353867298448  0.2702405636026401  1.0000
  C   C1017     1.0  0.7330228765936625  0.05726625371440847  0.24295231212412516  1.0000
  C   C1018     1.0  0.7165345482242459  0.04528680200741236  0.2199467908084998  1.0000
  C   C1019     1.0  0.6906825395429127  0.04079329847147223  0.22331075620682103  1.0000
  C   C1020     1.0  0.6799087175491452  0.047338248971811596  0.25100546171341437  1.0000
  H   H757      1.0  0.5270516808057921  0.4153831400700884  0.1594114931387296  1.0000
  H   H758      1.0  0.5637074192555167  0.44415376891967845  0.24205677330401837  1.0000
  H   H759      1.0  0.5419329387303538  0.39969537000418226  0.2557399811613603  1.0000
  H   H760      1.0  0.503733033925789  0.37139381746107775  0.17290532021815372  1.0000
  H   H761      1.0  0.5482673889247723  0.48064155653851487  0.24221980156802786  1.0000
  H   H762      1.0  0.5079832651064113  0.48446162929006215  0.26041643574815226  1.0000
  H   H763      1.0  0.9812060561623623  0.45801631209628313  0.17272040596801694  1.0000
  H   H764      1.0  0.5184351629541987  0.45132155438782595  0.15591978504586945  1.0000
  H   H765      1.0  0.6043103441506  0.46182684549364517  0.20957395001610613  1.0000
  H   H766      1.0  0.639655029714811  0.49579042472692636  0.23659644309164676  1.0000
  H   H767      1.0  0.6168073399954336  0.051529986053071644  0.21830712846006492  1.0000
  H   H768      1.0  0.5809310727818917  0.015529852372729495  0.19197940378087147  1.0000
  H   H769      1.0  0.6130868658261566  0.003686214734446861  0.3372742125411052  1.0000
  H   H770      1.0  0.6457257340078665  0.016346985036398143  0.2933660111891875  1.0000
  H   H771      1.0  0.6173484177352433  0.06650325924141365  0.2746490265225672  1.0000
  H   H772      1.0  0.5847741264041467  0.05443711210241337  0.31781801752671596  1.0000
  H   H773      1.0  0.667820722016606  0.06704760864406858  0.19576389276978148  1.0000
  H   H774      1.0  0.7004802891231043  0.10837624215962492  0.18381436767066617  1.0000
  H   H775      1.0  0.7064502344659032  0.13919315484449915  0.2749058518699793  1.0000
  H   H776      1.0  0.6708357613322518  0.09752003037801148  0.28975705674207397  1.0000
  H   H777      1.0  0.6902900149051229  0.0665063448866772  0.2945943063289848  1.0000
  H   H778      1.0  0.736404416999502  0.07488652107900048  0.28834563396325236  1.0000
  H   H779      1.0  0.724194539213151  0.04182795230441774  0.19721707758335622  1.0000
  H   H780      1.0  0.6811131684661792  0.03448259531027086  0.20294964266398477  1.0000
  C   C1021     1.0  0.8701834296851116  0.2809686747994063  0.1519678012651689  1.0000
  C   C1022     1.0  0.846225629668898  0.259027126823652  0.1569792454355419  1.0000
  C   C1023     1.0  0.8430699966341578  0.24394417213227218  0.17921540734087602  1.0000
  C   C1024     1.0  0.8642433877689171  0.24934005807034734  0.1954416327903765  1.0000
  C   C1025     1.0  0.8888231325365867  0.2715183477826367  0.1893030603344477  1.0000
  C   C1026     1.0  0.8914381712551926  0.2870596675411434  0.16870276422893452  1.0000
  H   H781      1.0  0.8287075783522285  0.254271797834033  0.1459589814412805  1.0000
  H   H782      1.0  0.8227504291229752  0.22792540363827407  0.1830307153714755  1.0000
  H   H783      1.0  0.9055423749486193  0.2758627655732158  0.20138300804477052  1.0000
  H   H784      1.0  0.9104631999524957  0.3052631106689915  0.1667948868872457  1.0000
  C   C1027     1.0  0.9001519299745683  0.22625348672713697  0.20230668598989812  1.0000
  C   C1028     1.0  0.8805667280301359  0.22374664488530424  0.22520233072210888  1.0000
  C   C1029     1.0  0.8788967097760307  0.2109509459351319  0.24963647094851302  1.0000
  C   C1030     1.0  0.8985335502882517  0.2048709487948215  0.2526536104646333  1.0000
  C   C1031     1.0  0.919653473422188  0.210527292349304  0.2310914476014643  1.0000
  C   C1032     1.0  0.9201214984005948  0.22114446268687557  0.20579884073553636  1.0000
  C   C1033     1.0  0.8602165841595739  0.235441065891292  0.22512863301372105  1.0000
  C   C1034     1.0  0.8323160577695218  0.20915285973272937  0.22608223669498187  1.0000
  C   C1035     1.0  0.8123514434386159  0.20594902754304245  0.24821164858634814  1.0000
  C   C1036     1.0  0.7874051564162876  0.18404769471886145  0.24675779379360627  1.0000
  C   C1037     1.0  0.78232762799574  0.1657758586136273  0.22282457465785035  1.0000
  C   C1038     1.0  0.8019220809293296  0.1686818223010033  0.20020674795362284  1.0000
  C   C1039     1.0  0.826680154469124  0.18978906578962737  0.20270845016380634  1.0000
  C   C1040     1.0  0.8818391925001143  0.26773036253942883  0.2719646433261374  1.0000
  C   C1041     1.0  0.8860509824681344  0.2890155018157603  0.29186079132696313  1.0000
  C   C1042     1.0  0.8755021846533344  0.30518976373383805  0.2881223075741983  1.0000
  C   C1043     1.0  0.854916950978417  0.29428363143107333  0.2691261649212604  1.0000
  C   C1044     1.0  0.8484158072501652  0.271064768231518  0.2514945465054428  1.0000
  C   C1045     1.0  0.8629766068938843  0.25826102437277254  0.2509518633800414  1.0000
  C   C1046     1.0  0.888861479394827  0.3354292578174589  0.30289311494623344  1.0000
  C   C1047     1.0  0.875960675351986  0.3492227668868321  0.399006093003427  1.0000
  C   C1048     1.0  0.8943383484145461  0.3693312948532931  0.3825469381301432  1.0000
  C   C1049     1.0  0.8994735592761683  0.3636468971237453  0.353179517969535  1.0000
  C   C1050     1.0  0.8858667200057131  0.3387629192291468  0.3386342702504444  1.0000
  C   C1051     1.0  0.8669979812554317  0.31863044454418554  0.35545074734621473  1.0000
  C   C1052     1.0  0.861729671089298  0.324005417307791  0.3853005525071797  1.0000
  C   C1053     1.0  0.8767491598431482  0.3530122859440507  0.29557247591304153  1.0000
  C   C1054     1.0  0.8922536901186198  0.37842022566244016  0.2865590228508199  1.0000
  C   C1055     1.0  0.8798750548159463  0.3924166191900492  0.28128628680525364  1.0000
  C   C1056     1.0  0.8528361819211724  0.3820527497908397  0.2855674536834199  1.0000
  C   C1057     1.0  0.8378094159741878  0.3587495825357494  0.2976002795256523  1.0000
  C   C1058     1.0  0.8498188229235332  0.3449297032124977  0.30290204800179565  1.0000
  C   C1059     1.0  0.9385812702963859  0.34908344575663397  0.3070291196715145  1.0000
  C   C1060     1.0  0.961507097615969  0.349428266121776  0.29455410757895506  1.0000
  C   C1061     1.0  0.9674473310783951  0.3486886290463124  0.26451000845951306  1.0000
  C   C1062     1.0  0.94888403345545  0.3469702815629397  0.24665283039075084  1.0000
  C   C1063     1.0  0.9253809920998776  0.3465354855971937  0.25934000255291173  1.0000
  C   C1064     1.0  0.919309125055089  0.34619733187339263  0.2899446509088794  1.0000
  H   H785      1.0  0.9015674109621051  0.2330210652416258  0.18110005873810317  1.0000
  H   H786      1.0  0.8633365704334236  0.20734847924322908  0.2670581625586198  1.0000
  H   H787      1.0  0.8996377275570266  0.19685973464051396  0.2721946695068631  1.0000
  H   H788      1.0  0.9357637868347122  0.22545925380907555  0.188015360375162  1.0000
  H   H789      1.0  0.8163732690973061  0.22144550509485292  0.2671430265864604  1.0000
  H   H790      1.0  0.7717810793308869  0.18202975586512243  0.26400752408414146  1.0000
  H   H791      1.0  0.7978589976449508  0.1541174387272059  0.18093926373798427  1.0000
  H   H792      1.0  0.8416549838277713  0.19106132542617624  0.18485417533810183  1.0000
  H   H793      1.0  0.8949216437750436  0.25947976016327323  0.27205844040954014  1.0000
  H   H794      1.0  0.9016686395007228  0.29620405098664176  0.30705591883820105  1.0000
  H   H795      1.0  0.8451380957216061  0.3047094711922391  0.2645189415150752  1.0000
  H   H796      1.0  0.8334495209536799  0.2649116177486956  0.23617212295244405  1.0000
  H   H797      1.0  0.9045328095667622  0.3896255231017606  0.3916162227896283  1.0000
  H   H798      1.0  0.914999253406844  0.3800638669161255  0.34054594414074707  1.0000
  H   H799      1.0  0.8565924984649921  0.29883200720740144  0.34633456414502817  1.0000
  H   H800      1.0  0.8459863156081281  0.3080323362371346  0.39785372883590814  1.0000
  H   H801      1.0  0.9138365136918928  0.3871484615065298  0.2826128455562347  1.0000
  H   H802      1.0  0.8920645304611964  0.41189790752633354  0.2735547272162023  1.0000
  H   H803      1.0  0.8166037313165556  0.35053359413193225  0.30223430209852403  1.0000
  H   H804      1.0  0.8373672185517723  0.326657372019593  0.31216785988364837  1.0000
  H   H805      1.0  0.9357625300120809  0.3489805911994395  0.3304292587165984  1.0000
  H   H806      1.0  0.975742012211408  0.3503744447953073  0.30875543265890243  1.0000
  H   H807      1.0  0.9516959725554693  0.3453427093780552  0.22306420387330536  1.0000
  H   H808      1.0  0.9104141100532046  0.3436259085616582  0.24509401219515356  1.0000
  C   C1065     1.0  0.9206344460245439  0.055852229726740345  0.41266250169408253  1.0000
  C   C1066     1.0  0.9412788752487954  0.06014771208796194  0.3913437645949824  1.0000
  C   C1067     1.0  0.9361009833542288  0.05012161020808327  0.36232696686518906  1.0000
  C   C1068     1.0  0.9097311770578128  0.03398438994242497  0.3547807681790526  1.0000
  C   C1069     1.0  0.889260715608539  0.030469465040949485  0.3767516183341905  1.0000
  C   C1070     1.0  0.8947233848966945  0.04155931377524712  0.4052949641191892  1.0000
  H   H809      1.0  0.9616758090171602  0.07202558413075795  0.39595098800116757  1.0000
  H   H810      1.0  0.952891733077796  0.054854515043923455  0.3456176864361647  1.0000
  H   H811      1.0  0.8686338669358166  0.018505862258632693  0.372155561247458  1.0000
  H   H812      1.0  0.878012384384164  0.038876752642463236  0.42187471524256226  1.0000
  C   C1071     1.0  0.8766305241475273  0.47427835388490447  0.3392394847647809  1.0000
  C   C1072     1.0  0.8801384751485175  0.4917000868115382  0.3188229862774592  1.0000
  C   C1073     1.0  0.8649785312148379  0.48069283341521174  0.2937702319533753  1.0000
  C   C1074     1.0  0.8474769358465335  0.45451963774620524  0.28994018438109825  1.0000
  C   C1075     1.0  0.8447295922799934  0.4386506087582992  0.3099479955764511  1.0000
  C   C1076     1.0  0.8591763553857379  0.44829301673447486  0.3348153889976201  1.0000
  C   C1077     1.0  0.9024319197646341  0.022118763501131792  0.3220545191270714  1.0000
  C   C1078     1.0  0.9244388887691681  0.02012723351073937  0.29765834438680644  1.0000
  C   C1079     1.0  0.9251291436857461  0.02212749204607067  0.26780853922584147  1.0000
  C   C1080     1.0  0.9435781609147741  0.01934043935526958  0.2472781442801022  1.0000
  C   C1081     1.0  0.961086344989086  0.013135986438040287  0.25645015907855223  1.0000
  C   C1082     1.0  0.959866998149765  0.009162914722550944  0.2858265122947226  1.0000
  C   C1083     1.0  0.9417710148446714  0.012457185458057764  0.30579412474004564  1.0000
  C   C1084     1.0  0.8699215916781681  0.03611973128671029  0.3066025662684213  1.0000
  C   C1085     1.0  0.8659055087874168  0.04752660077832527  0.28620170062833344  1.0000
  C   C1086     1.0  0.8869609630990077  0.06826021482200186  0.2732085713131685  1.0000
  C   C1087     1.0  0.9115672124601837  0.07901310506749018  0.2850002046552226  1.0000
  C   C1088     1.0  0.9155206622797875  0.06729906598536177  0.3060688161985821  1.0000
  C   C1089     1.0  0.8953016451949124  0.04296890803741423  0.31327109224557537  1.0000
  C   C1090     1.0  0.88448200620435  0.07569910758006995  0.24215727017909272  1.0000
  C   C1091     1.0  0.9107554971038359  0.026299768689406863  0.18041578668204153  1.0000
  C   C1092     1.0  0.8848844550420838  0.015972447520510677  0.19300849178163257  1.0000
  C   C1093     1.0  0.8767985644100159  0.030878002047194306  0.21271771559482006  1.0000
  C   C1094     1.0  0.8937584069315002  0.05684180116915745  0.22074451267020087  1.0000
  C   C1095     1.0  0.9201671815134299  0.06694508009774285  0.20937295626595745  1.0000
  C   C1096     1.0  0.9287655916014562  0.051978004740243375  0.1891974269524251  1.0000
  C   C1097     1.0  0.9013393901015027  0.1061993245089362  0.2359934618412008  1.0000
  C   C1098     1.0  0.9093403557895122  0.1264982099165833  0.2580692753991941  1.0000
  C   C1099     1.0  0.9239964609674122  0.1523368108538699  0.25236328615886305  1.0000
  C   C1100     1.0  0.9295490687262303  0.15778566803330865  0.22299966254686873  1.0000
  C   C1101     1.0  0.9193816895810432  0.1380598998813939  0.2000548860090661  1.0000
  C   C1102     1.0  0.9062250092725475  0.11263018739410564  0.2068049261182249  1.0000
  C   C1103     1.0  0.8432628877272821  0.06022167522039852  0.21168639433016842  1.0000
  C   C1104     1.0  0.8162424216919671  0.05183844668298786  0.2112339350659449  1.0000
  C   C1105     1.0  0.802331604286199  0.05731899203219294  0.23572100364655485  1.0000
  C   C1106     1.0  0.815565497874983  0.07067031616925065  0.26114224651257795  1.0000
  C   C1107     1.0  0.8420277628401954  0.0778241023605437  0.2618792235964563  1.0000
  C   C1108     1.0  0.8559732657490404  0.07139929750056853  0.23799446628712514  1.0000
  H   H813      1.0  0.8889847224081896  0.48124094636671655  0.35830485859832556  1.0000
  H   H814      1.0  0.8679039939992281  0.4921960870943095  0.27641107173220364  1.0000
  H   H815      1.0  0.8366623704049906  0.4464114100900211  0.26973361269948737  1.0000
  H   H816      1.0  0.8580045641580893  0.4352386255262213  0.34974029157810255  1.0000
  H   H817      1.0  0.9115305873094336  0.026535968475895347  0.2595007975530306  1.0000
  H   H818      1.0  0.9426715507151696  0.020482859651171963  0.22445418731877778  1.0000
  H   H819      1.0  0.9727245918296361  0.0032892446664824207  0.29388636167568344  1.0000
  H   H820      1.0  0.9401447163685486  0.007740038908568127  0.32903793531279163  1.0000
  H   H821      1.0  0.8532538496454187  0.018705807388955248  0.31421576287127406  1.0000
  H   H822      1.0  0.8462427840994838  0.038826865751923845  0.27736020888568336  1.0000
  H   H823      1.0  0.9285119345070423  0.09537813659033793  0.27521627555076444  1.0000
  H   H824      1.0  0.9356030696134487  0.07412892206131658  0.3110355950911443  1.0000
  H   H825      1.0  0.8709305634706156  0.4956842719033529  0.18706957311751807  1.0000
  H   H826      1.0  0.8566305436732489  0.022669745072110507  0.2224069543103193  1.0000
  H   H827      1.0  0.9349012414360052  0.08745033025475596  0.21602026623615142  1.0000
  H   H828      1.0  0.9493644177873679  0.059382740559755814  0.1793855820493352  1.0000
  H   H829      1.0  0.9045552092755097  0.12277345976512329  0.2814202826386861  1.0000
  H   H830      1.0  0.9325082950477354  0.16767283624190263  0.2713728283951442  1.0000
  H   H831      1.0  0.9226629789689982  0.14234584420970117  0.17715388144351804  1.0000
  H   H832      1.0  0.899353107621413  0.09755451167432931  0.18836263291014105  1.0000
  H   H833      1.0  0.8518004238682161  0.05393911829854558  0.19226928143386363  1.0000
  H   H834      1.0  0.8062518049499177  0.040455952713377825  0.19131880432204956  1.0000
  H   H835      1.0  0.8047788618628138  0.07528509772306465  0.280506877707455  1.0000
  H   H836      1.0  0.8506559289069798  0.08683786353498366  0.28293220229258204  1.0000
  C   C1109     1.0  0.9319348743603056  0.4723101455721321  0.14497835526694414  1.0000
  C   C1110     1.0  0.957140294672539  0.4782261440821949  0.132950889258049  1.0000
  C   C1111     1.0  0.9618784720227992  0.4620462002123667  0.11080137799166781  1.0000
  C   C1112     1.0  0.9416866745181067  0.43797896377369605  0.10093258485936914  1.0000
  C   C1113     1.0  0.9158194445033957  0.43160729732419145  0.1132959337574016  1.0000
  C   C1114     1.0  0.9111872584601107  0.4483646011579937  0.1351799099471975  1.0000
  H   H837      1.0  0.9739448614074729  0.4974883444834436  0.13825734758836236  1.0000
  H   H838      1.0  0.9819387192234706  0.4682643434284764  0.1000475423795479  1.0000
  H   H839      1.0  0.8991211855874929  0.4135499500368391  0.10516774650139023  1.0000
  H   H840      1.0  0.8912006246652449  0.442838170215555  0.14345995914776563  1.0000
  C   C1115     1.0  0.9272256206448695  0.3836290586610297  0.1144960897721781  1.0000
  C   C1116     1.0  0.9295131059712916  0.38880510770334553  0.08497122450728678  1.0000
  C   C1117     1.0  0.9214802281574298  0.3678696368913986  0.06313280690085792  1.0000
  C   C1118     1.0  0.9106373838075192  0.34220871903749206  0.07008652067683402  1.0000
  C   C1119     1.0  0.906378703513855  0.3373541745481179  0.09970920290013102  1.0000
  C   C1120     1.0  0.9151056836247404  0.35838179903909645  0.12178613309006961  1.0000
  C   C1121     1.0  0.9454597483071383  0.41806513138014234  0.0757643707921443  1.0000
  C   C1122     1.0  0.9752658300770685  0.421590463168259  0.07014391555882092  1.0000
  C   C1123     1.0  0.9855495088473452  0.4163274756691022  0.042157992440901085  1.0000
  C   C1124     1.0  0.5096584421770997  0.41607092171088206  0.03766868536813648  1.0000
  C   C1125     1.0  0.524144371274947  0.42055241126900506  0.06172607397620642  1.0000
  C   C1126     1.0  0.5138791645813714  0.4251402292397403  0.08959184749681517  1.0000
  C   C1127     1.0  0.9901338571332647  0.42578413883219784  0.0936391916456418  1.0000
  C   C1128     1.0  0.9120125275253057  0.4102836879999123  0.03573557214448458  1.0000
  C   C1129     1.0  0.9059525601806958  0.41713803956450335  0.011460848873048102  1.0000
  C   C1130     1.0  0.9247211234340551  0.4383237324176372  0.9966967412926846  1.0000
  C   C1131     1.0  0.9488889685602335  0.4533794977919196  0.009551408246635917  1.0000
  C   C1132     1.0  0.9554109935640703  0.446372920404101  0.0333794787399643  1.0000
  C   C1133     1.0  0.9371702085713073  0.42435935956340504  0.04671787065260678  1.0000
  C   C1134     1.0  0.9229189768390098  0.445808322319308  0.9653528825889479  1.0000
  C   C1135     1.0  0.9607466423393233  0.4009350705220008  0.916341673247145  1.0000
  C   C1136     1.0  0.9338172848749203  0.3893711327823597  0.9244149222114492  1.0000
  C   C1137     1.0  0.921647982704193  0.4035718323832275  0.938705577847018  1.0000
  C   C1138     1.0  0.9369266541816751  0.4304701624398395  0.945720259727206  1.0000
  C   C1139     1.0  0.9641942739030142  0.4425115482415282  0.9369301330540384  1.0000
  C   C1140     1.0  0.9754226259430123  0.4276765030477205  0.9224317838766491  1.0000
  C   C1141     1.0  0.9359230596455307  0.477125040968489  0.9664092164091737  1.0000
  C   C1142     1.0  0.9281309921394919  0.4893263546814901  0.9912967092053574  1.0000
  C   C1143     1.0  0.9414030972241053  0.01595177663181626  0.9976838439323034  1.0000
  C   C1144     1.0  0.959114187165604  0.0319887155433343  0.9765460012083371  1.0000
  C   C1145     1.0  0.9632545148790644  0.019880848287963666  0.9491215206324991  1.0000
  C   C1146     1.0  0.9519399044652274  0.49273544386120494  0.9446706256986518  1.0000
  C   C1147     1.0  0.8951514732548148  0.4366673988895025  0.9220811614458342  1.0000
  C   C1148     1.0  0.8720303361989619  0.4307140947614195  0.9094118553947977  1.0000
  C   C1149     1.0  0.8486378873542846  0.42506342432525007  0.9266861515881288  1.0000
  C   C1150     1.0  0.8492055203520968  0.4251637952641684  0.95742926230531  1.0000
  C   C1151     1.0  0.8723508492712979  0.43212217735838443  0.9697680453005465  1.0000
  C   C1152     1.0  0.8955936640495572  0.43780903187545817  0.952504915426668  1.0000
  H   H841      1.0  0.9348966434698424  0.3994490559240599  0.13205110723655017  1.0000
  H   H842      1.0  0.9249145335191274  0.37148860530088845  0.039646240543210136  1.0000
  H   H843      1.0  0.9037331610077296  0.3261714130312571  0.05216346132330085  1.0000
  H   H844      1.0  0.9132302481897366  0.35480053598968037  0.14532183125330927  1.0000
  H   H845      1.0  0.9740532458463422  0.40972460108120995  0.02343721122566684  1.0000
  H   H846      1.0  0.5176415862351793  0.4129808625894012  0.014873276097794095  1.0000
  H   H847      1.0  0.5236993751812615  0.42701239635067517  0.10895893528197187  1.0000
  H   H848      1.0  0.9819805626639079  0.42834133492744697  0.1157954027036946  1.0000
  H   H849      1.0  0.8961863816412025  0.3935361390315757  0.046976929263909485  1.0000
  H   H850      1.0  0.8865061421805479  0.40509266996502197  0.003409932547649319  1.0000
  H   H851      1.0  0.9643712627018687  0.4707701600373021  0.00055582129553855  1.0000
  H   H852      1.0  0.9746281447603404  0.459503917775384  0.04127562987774852  1.0000
  H   H853      1.0  0.9216496974123709  0.36853465722096007  0.9215228454731991  1.0000
  H   H854      1.0  0.9007707149292262  0.3934348891238924  0.9453808036158438  1.0000
  H   H855      1.0  0.9773930599580537  0.46254109290446654  0.9425311588915141  1.0000
  H   H856      1.0  0.9962846993801366  0.43662045102907704  0.9175342361646937  1.0000
  H   H857      1.0  0.9144565345857882  0.47798849033183716  0.008349912273525106  1.0000
  H   H858      1.0  0.9368871786814073  0.024831666152388483  0.019107544434258772  1.0000
  H   H859      1.0  0.9755889297413928  0.03173936289724182  0.9319856868003815  1.0000
  H   H860      1.0  0.9571366702581042  0.48434786806245567  0.9234970507524369  1.0000
  H   H861      1.0  0.9133088548596942  0.4439181509773574  0.9076051449073504  1.0000
  H   H862      1.0  0.8738771397636248  0.43414591716713585  0.8864204036416827  1.0000
  H   H863      1.0  0.8320746525290358  0.4232325005164481  0.9728253835666965  1.0000
  H   H864      1.0  0.871453953840422  0.43431163618998414  0.9941173214991101  1.0000
  C   C1153     1.0  0.9275774719521571  0.491755579657373  0.16910542170839896  1.0000
  C   C1154     1.0  0.918537331782204  0.00869734397012851  0.156835199914602  1.0000
  H   H865      1.0  0.9467374768607775  0.004358833870668353  0.17943292724381468  1.0000
  H   H866      1.0  0.9136237097460645  0.4809555912536401  0.1867209606242047  1.0000
  H   H867      1.0  0.9021899430193073  0.49569694024604954  0.1419464762091463  1.0000
  H   H868      1.0  0.9354010521596707  0.021803011122439268  0.1416976906117401  1.0000
  C   C1155     1.0  0.8955383278404724  0.3093354182220134  0.10849821294135334  1.0000
  C   C1156     1.0  0.8715182998783244  0.30013326446770827  0.13228113341727585  1.0000
  H   H869      1.0  0.8888047279407482  0.295350059106507  0.08870591171143774  1.0000
  H   H870      1.0  0.9116596940780584  0.30654476392685454  0.11580679234953634  1.0000
  H   H871      1.0  0.8721252615939635  0.3174079880896218  0.14613719589974564  1.0000
  H   H872      1.0  0.8531627084106462  0.2928791781786489  0.12063868210310988  1.0000
  C   C1157     1.0  0.8393964661187846  0.3967968491907649  0.2766611972879442  1.0000
  C   C1158     1.0  0.8270915354379498  0.4092012893083115  0.3021673041818078  1.0000
  H   H873      1.0  0.8529942482028581  0.4116285971160508  0.26094348602631984  1.0000
  H   H874      1.0  0.8223811242905833  0.3825611881850332  0.26405888915362385  1.0000
  H   H875      1.0  0.8214526503028194  0.39848686906247754  0.32223318023831465  1.0000
  H   H876      1.0  0.8075161928808559  0.4048826988564135  0.2956841391075686  1.0000
  C   C1159     1.0  0.9448763351753883  0.20826248063363445  0.23630165225809538  1.0000
  C   C1160     1.0  0.9478128875176133  0.18646974793721607  0.21529467879811479  1.0000
  H   H877      1.0  0.9454375084601386  0.2076594063498933  0.2600055151922928  1.0000
  H   H878      1.0  0.9626155472201625  0.22726122847275076  0.23188648954649674  1.0000
  H   H879      1.0  0.9687203014348396  0.19086051762182857  0.21486566880474195  1.0000
  H   H880      1.0  0.9462129765700775  0.18952479537463626  0.1922951872949939  1.0000
  C   C1161     1.0  0.5773132937239035  0.4454673545978408  0.05880898468238236  1.0000
  C   C1162     1.0  0.5505585248343435  0.4191101891892565  0.056874754826785195  1.0000
  H   H881      1.0  0.5759782813102508  0.45878019894849564  0.04574751749216691  1.0000
  H   H882      1.0  0.5935553917925036  0.44168231491933285  0.048123933598091105  1.0000
  H   H883      1.0  0.5503384952370549  0.40646113387945193  0.07313358592908754  1.0000
  H   H884      1.0  0.5505771805865005  0.40880063766441777  0.034002559365425115  1.0000
  C   C1163     1.0  0.9693474602977065  0.47810203456830025  0.22717206947356564  1.0000
  C   C1164     1.0  0.9799344422330366  0.007680521440095682  0.23403042288141568  1.0000
  H   H885      1.0  0.9537171548301095  0.4699761568684016  0.2109346777046125  1.0000
  H   H886      1.0  0.9595646321042497  0.46765822676793  0.24778286191936436  1.0000
  H   H887      1.0  0.9998107278131526  0.018106819589558874  0.24279151712400626  1.0000
  H   H888      1.0  0.9820525060283307  0.016458520348733297  0.2128546146713102  1.0000
  C   C1165     1.0  0.7633127805090141  0.06775635061447523  0.23704086260586432  1.0000
  C   C1166     1.0  0.7716980741782065  0.04645035472844903  0.23600239489676297  1.0000
  H   H889      1.0  0.7691648121289456  0.0764288624583881  0.21573954496511047  1.0000
  H   H890      1.0  0.7748929237675211  0.085389441593892  0.2526290445618373  1.0000
  H   H891      1.0  0.7618145869991768  0.03471360962853017  0.2555702531056792  1.0000
  H   H892      1.0  0.7635049216816304  0.03251863433890635  0.21628647129190384  1.0000
  C   C1167     1.0  0.73244213259474  0.14970795677235335  0.22124521043446008  1.0000
  C   C1168     1.0  0.7546867762043704  0.14214780299225224  0.22311802553306737  1.0000
  H   H893      1.0  0.7325260096875262  0.15553807546414047  0.19940254962663922  1.0000
  H   H894      1.0  0.7342009138561207  0.16714250324211094  0.2370609619808792  1.0000
  H   H895      1.0  0.7528506887646238  0.12730925370639212  0.2045111407762507  1.0000
  H   H896      1.0  0.7526215335880296  0.13366323193321128  0.24335876615220353  1.0000
  C   C1169     1.0  0.5052773800034461  0.353361473406511  0.22240092449781482  1.0000
  C   C1170     1.0  0.9924867287209101  0.3458303336152312  0.2536630457431576  1.0000
  H   H897      1.0  0.989621781211385  0.34130921071394543  0.20603601336071178  1.0000
  H   H898      1.0  0.5196477114465134  0.3457612405954076  0.2179897816612191  1.0000
  H   H899      1.0  0.5077909485286882  0.35672921390985285  0.2701467665192374  1.0000
  H   H900      1.0  0.9868181956004924  0.3250026804180317  0.2545384851882495  1.0000
  C   C1171     1.0  0.8251342567986486  0.42236609604219044  0.9121766360912869  1.0000
  C   C1172     1.0  0.7978041811152382  0.3989766373911949  0.9197875994302491  1.0000
  H   H901      1.0  0.8227784351676679  0.4405491257383521  0.9166409306084774  1.0000
  H   H902      1.0  0.8296132022910797  0.42056324232149017  0.8875906339203261  1.0000
  H   H903      1.0  0.7876775511138039  0.40753071693557874  0.9378435379852694  1.0000
  H   H904      1.0  0.7995669307002482  0.3847569693277641  0.9317132286057356  1.0000
  C   C1173     1.0  0.9734206921106997  0.38407869707221887  0.9037482981683868  1.0000
  C   C1174     1.0  0.978458409316042  0.38346789324824  0.8695838271708977  1.0000
  H   H905      1.0  0.9925291663886256  0.3914593757659522  0.9139565474120478  1.0000
  H   H906      1.0  0.960066988918763  0.3636828237225403  0.9104726557428046  1.0000
  H   H907      1.0  0.9933182250836806  0.403474646934988  0.8641145639029638  1.0000
  H   H908      1.0  0.9604739540014966  0.3786528419747744  0.8595118070245598  1.0000
  C   C1175     1.0  0.6162521856785808  0.3215637627839723  0.8015050107316596  1.0000
  C   C1176     1.0  0.6368580336676926  0.35007583428976735  0.8107842221968555  1.0000
  H   H909      1.0  0.6224658785060336  0.31464518391721225  0.7799964462018634  1.0000
  H   H910      1.0  0.6146192810379335  0.30813185339872823  0.816595174840042  1.0000
  H   H911      1.0  0.6307833212458593  0.3580712136916239  0.8325965106157649  1.0000
  H   H912      1.0  0.6385868124834181  0.36363156449399375  0.795446165796623  1.0000
  C   C1177     1.0  0.8967662755791644  0.37762256881211403  0.8195475497033365  1.0000
  C   C1178     1.0  0.9075476987390352  0.4073512223521061  0.8221202697052393  1.0000
  H   H913      1.0  0.8755585179319525  0.36704576846827913  0.8154405774086324  1.0000
  H   H914      1.0  0.8971928040510961  0.3729309377585876  0.8420499166644232  1.0000
  H   H915      1.0  0.9062427813293311  0.4151639022082505  0.8457995667366407  1.0000
  H   H916      1.0  0.929260481425051  0.4170923687051701  0.8151971516445635  1.0000
  C   C1179     1.0  0.957264859829989  0.07470579750441149  0.9751993430823412  1.0000
  C   C1180     1.0  0.9720992946950927  0.06156488026898401  0.9841502647556276  1.0000
  H   H917      1.0  0.9659910880080593  0.09526149020227051  0.9855929532289168  1.0000
  H   H918      1.0  0.9363846233120429  0.06537312974946764  0.984824710450571  1.0000
  H   H919      1.0  0.9933235529068714  0.0704346470266972  0.9745606296096465  1.0000
  H   H920      1.0  0.9737922456827627  0.0660409157925155  0.00851517380142508  1.0000
  C   C1181     1.0  0.9669639421342038  0.1848207035648647  0.8104246667104785  1.0000
  C   C1182     1.0  0.9532228575780308  0.19552700317040655  0.7934161289201216  1.0000
  H   H921      1.0  0.9505004287570789  0.16768317380231293  0.8204721209540204  1.0000
  H   H922      1.0  0.9762284719876613  0.19927970155185742  0.8303677132530056  1.0000
  H   H923      1.0  0.9325628895547986  0.18940209433676244  0.8037159419832947  1.0000
  H   H924      1.0  0.9504590687538508  0.18665383296538549  0.7696497345969892  1.0000
  C   C1183     1.0  0.5161602719373827  0.47741668815864124  0.810286204349265  1.0000
  C   C1184     1.0  0.9890249290650103  0.4711728168048487  0.8282505790847732  1.0000
  H   H925      1.0  0.5225944182309274  0.49358986580057895  0.7960134148248204  1.0000
  H   H926      1.0  0.5328373755478865  0.4851369174179754  0.8254210337354582  1.0000
  H   H927      1.0  0.9854514653497071  0.4614789384711759  0.8482829561829218  1.0000
  H   H928      1.0  0.9729070471890496  0.4564316247152004  0.8139666232408758  1.0000
  C   C1185     1.0  0.6425890087418414  0.2329138815716814  0.7915826192659877  1.0000
  C   C1186     1.0  0.6702492024733856  0.23501760394075538  0.7897156106534959  1.0000
  H   H929      1.0  0.6385760522797606  0.23802892606003748  0.815715268867169  1.0000
  H   H930      1.0  0.6437355515204788  0.24913610679226134  0.7806396262023392  1.0000
  H   H931      1.0  0.6737768215759935  0.22708868630697757  0.7670948807062107  1.0000
  H   H932      1.0  0.6711328293076817  0.22352871673891284  0.805799577193169  1.0000
  C   C1187     1.0  0.8817703606303435  0.046784426071898026  0.7754249550179271  1.0000
  C   C1188     1.0  0.872587799177009  0.026851042964296457  0.7467967452050878  1.0000
  H   H933      1.0  0.8643651370318585  0.0414983531003067  0.7917076820438581  1.0000
  H   H934      1.0  0.8862082981394601  0.0659989077306737  0.7691383171660553  1.0000
  H   H935      1.0  0.8893803609908633  0.03471194185921458  0.7292566906087822  1.0000
  H   H936      1.0  0.8562648472280514  0.02763461742008588  0.7377944584623187  1.0000
  C   C1189     1.0  0.8702732127215108  0.3541507421791182  0.4330856999730758  1.0000
  C   C1190     1.0  0.893927123807798  0.3643515854806211  0.45225157068169475  1.0000
  H   H937      1.0  0.8623186468479862  0.36804701533618855  0.4361743039336934  1.0000
  H   H938      1.0  0.8536024035080298  0.3364790282570116  0.44238277754939614  1.0000
  H   H939      1.0  0.9041831099617755  0.35261622394766434  0.4456455760934758  1.0000
  H   H940      1.0  0.8861299375332327  0.3586075614877575  0.4751224261847205  1.0000
  C   C1191     1.0  0.9196074515804582  0.04743579303416819  0.4661179061780611  1.0000
  C   C1192     1.0  0.9269558805747902  0.06806119500445193  0.44457137616212583  1.0000
  H   H941      1.0  0.8981771231741712  0.033422975375070475  0.4645568547185732  1.0000
  H   H942      1.0  0.9214495607433166  0.05678239774921779  0.4890736257089273  1.0000
  H   H943      1.0  0.9486678028092574  0.08280554144165661  0.44512522560697987  1.0000
  H   H944      1.0  0.9160704807208576  0.07896773109087213  0.45229176943172456  1.0000
  C   C1193     1.0  0.5504852261176969  0.019493213266124167  0.35854828436239444  1.0000
  C   C1194     1.0  0.5776658818677489  0.02094407250967164  0.359240596168462  1.0000
  H   H945      1.0  0.5417239113652992  0.008547817257253482  0.33690125747138494  1.0000
  H   H946      1.0  0.5543771889454607  0.04008140151972429  0.3589860040849404  1.0000
  H   H947      1.0  0.5739122969022704  0.0021001079623046964  0.36486842117262425  1.0000
  H   H948      1.0  0.5881217710784015  0.03527921535824191  0.37762035798761073  1.0000
  C   C1195     1.0  0.8406566391564212  0.36049238846433174  0.6231811223358872  1.0000
  C   C1196     1.0  0.8513430391839668  0.3788563991295207  0.5977353135670682  1.0000
  H   H949      1.0  0.8541274017773509  0.35149266655935557  0.6214503428207184  1.0000
  H   H950      1.0  0.8209024950281529  0.3435153321464794  0.6193220423330332  1.0000
  H   H951      1.0  0.8448648944828677  0.3652720814195098  0.5776292387605316  1.0000
  H   H952      1.0  0.8407012742498675  0.39045489298602326  0.599345496832148  1.0000
  C   C1197     1.0  0.5134665342496478  0.04942321545427491  0.6657225661867942  1.0000
  C   C1198     1.0  0.5286978260536053  0.0757923736628986  0.6511862515232657  1.0000
  H   H953      1.0  0.998600983209599  0.05044880818305713  0.6828271343244442  1.0000
  H   H954      1.0  0.5275789207105827  0.04807074024098025  0.6788273586964861  1.0000
  H   H955      1.0  0.5467401317027006  0.07675842150917893  0.6376727717216049  1.0000
  H   H956      1.0  0.516385824851181  0.07643769024196666  0.6352496804003684  1.0000
  C   C1199     1.0  0.9957961865664113  0.36084247636279515  0.6108490391323224  1.0000
  C   C1200     1.0  0.9769517823962641  0.3625139462666295  0.5921231214101399  1.0000
  H   H957      1.0  0.5164005543045931  0.3747441885487158  0.6031331123905047  1.0000
  H   H958      1.0  0.9938482900510598  0.3409124851985638  0.6040733164884223  1.0000
  H   H959      1.0  0.9560583181124764  0.3495812191645342  0.5980256378728385  1.0000
  H   H960      1.0  0.9801451580349895  0.3534533293929016  0.5699200118103858  1.0000
  C   C1201     1.0  0.9136268807778594  0.8941588679886048  0.4539332183912718  1.0000
  C   C1202     1.0  0.9393547852495243  0.9035351096659414  0.44238277754939614  1.0000
  C   C1203     1.0  0.9561908840075487  0.9299208941219611  0.44309295546658795  1.0000
  C   C1204     1.0  0.9477830658473331  0.9484432399009495  0.4544022038082854  1.0000
  C   C1205     1.0  0.9212633059258318  0.9383210163982131  0.4668303173591435  1.0000
  C   C1206     1.0  0.9052038224962797  0.9112833393318193  0.46808987819340836  1.0000
  H   H961      1.0  0.945172347393326  0.8895171512896854  0.4308144705963961  1.0000
  H   H962      1.0  0.9761095195500975  0.9353366304334008  0.43292043844517586  1.0000
  H   H963      1.0  0.9132510753904736  0.9510192230515339  0.4764221857690151  1.0000
  H   H964      1.0  0.8852770193084948  0.9043177289083718  0.4778269087561652  1.0000
  C   C1207     1.0  0.9362819810601685  0.9922225101641933  0.43987258893642855  1.0000
  C   C1208     1.0  0.958794433869743  0.9997504741071912  0.4542749077665245  1.0000
  C   C1209     1.0  0.9715455266051509  0.5252501747661656  0.4681345434712192  1.0000
  C   C1210     1.0  0.9605908319207793  0.5415637316985841  0.4706000668063759  1.0000
  C   C1211     1.0  0.9359986710777913  0.5324142674707552  0.45982233527062727  1.0000
  C   C1212     1.0  0.9242953183874336  0.5077182730132386  0.44334978081400017  1.0000
  C   C1213     1.0  0.96840035734641  0.9791134707398683  0.45750867388002725  1.0000
  C   C1214     1.0  0.9918229404759992  0.9868256189588837  0.4317033096248312  1.0000
  C   C1215     1.0  0.5168200431440061  0.5074440717282251  0.437581260184734  1.0000
  C   C1216     1.0  0.5357531516493711  0.5187011329196836  0.41489129905684197  1.0000
  C   C1217     1.0  0.5310591969076236  0.508198107279586  0.3857181728547108  1.0000
  C   C1218     1.0  0.5065983160726482  0.9866524226277185  0.37937570340557564  1.0000
  C   C1219     1.0  0.9868146960707386  0.9768013180730895  0.4020656645334676  1.0000
  C   C1220     1.0  0.9585081471051592  0.9847001187286036  0.5150062860058842  1.0000
  C   C1221     1.0  0.958044992601937  0.9785785918497082  0.5428662530403775  1.0000
  C   C1222     1.0  0.9735365951386534  0.968431391066005  0.5489384975587573  1.0000
  C   C1223     1.0  0.9932565525162698  0.9690763959676393  0.5270011463619775  1.0000
  C   C1224     1.0  0.9930057396869588  0.9739617486512295  0.4979285170349206  1.0000
  C   C1225     1.0  0.9746779529462144  0.9809118673601067  0.49111706216877193  1.0000
  C   C1226     1.0  0.9664169349064001  0.9548735866211346  0.5792371887617209  1.0000
  C   C1227     1.0  0.8810066932443285  0.898597749110858  0.5927171696050236  1.0000
  C   C1228     1.0  0.8955543115023733  0.9138826644668873  0.616805153928394  1.0000
  C   C1229     1.0  0.9221064713687859  0.9312101392488507  0.6133301953147129  1.0000
  C   C1230     1.0  0.9350420973397483  0.9354179803947402  0.5845813892517845  1.0000
  C   C1231     1.0  0.9202624915954107  0.9210063681099976  0.5606653662479857  1.0000
  C   C1232     1.0  0.8940924637936158  0.9027446856237877  0.5644127830563127  1.0000
  C   C1233     1.0  0.9788565693458715  0.9805117090068126  0.6025345976678399  1.0000
  C   C1234     1.0  0.5056700692051709  0.9924481333056709  0.6080931914913953  1.0000
  C   C1235     1.0  0.5163145040804296  0.5140741061149675  0.6285588217843089  1.0000
  C   C1236     1.0  0.5009729277614322  0.5247691358891783  0.6430884366561657  1.0000
  C   C1237     1.0  0.9747702949765121  0.514024808641522  0.6371211555406414  1.0000
  C   C1238     1.0  0.9644536068528041  0.9929780722328384  0.616231205108525  1.0000
  C   C1239     1.0  0.9792060119424237  0.9288874711047105  0.6100003988539169  1.0000
  C   C1240     1.0  0.9814122775507398  0.9072286310332475  0.6133837936480859  1.0000
  C   C1241     1.0  0.981563158765484  0.8903063187146755  0.589099282102348  1.0000
  C   C1242     1.0  0.9810000386843937  0.8958889415130081  0.5613487449984911  1.0000
  C   C1243     1.0  0.9767823200979588  0.916305390332784  0.5577732895097357  1.0000
  C   C1244     1.0  0.9758691479685845  0.9333841189344354  0.581803208971952  1.0000
  H   H965      1.0  0.9272377287618735  0.9729312267957732  0.4274400088577893  1.0000
  H   H966      1.0  0.989844518053895  0.5313579770670067  0.47800333660351785  1.0000
  H   H967      1.0  0.9711750203812125  0.5613098277803341  0.4814715954255273  1.0000
  H   H968      1.0  0.9051298581632179  0.5005376525423192  0.43415989990442583  1.0000
  H   H969      1.0  0.5204551552938164  0.5154468441287585  0.46073574020185837  1.0000
  H   H970      1.0  0.555199275973034  0.5353296789611447  0.420592821769392  1.0000
  H   H971      1.0  0.5021655022173492  0.9781971241290874  0.3572552245697715  1.0000
  H   H972      1.0  0.9663890967640469  0.9622751235754042  0.3976438020301973  1.0000
  H   H973      1.0  0.9436039062764772  0.9893713894142177  0.510423628502495  1.0000
  H   H974      1.0  0.9425712556887506  0.9792831258120497  0.5589948848578614  1.0000
  H   H975      1.0  0.5074658900476916  0.9630651550425808  0.5312220151150991  1.0000
  H   H976      1.0  0.5060569605784462  0.9710526692875758  0.48091327945289214  1.0000
  H   H977      1.0  0.886039933882771  0.9126881706508593  0.6388430020002481  1.0000
  H   H978      1.0  0.9323323809860177  0.9421028305031237  0.6333960713712197  1.0000
  H   H979      1.0  0.9292268860578206  0.9218123885462406  0.5377766446338357  1.0000
  H   H980      1.0  0.8840097023016406  0.8918293064313767  0.5440990147079559  1.0000
  H   H981      1.0  0.5183025897612044  0.9846849621776683  0.5951357943984791  1.0000
  H   H982      1.0  0.5373619175082224  0.523010365159399  0.633380438523986  1.0000
  H   H983      1.0  0.9630189082402469  0.5231751291454819  0.6486336308963779  1.0000
  H   H984      1.0  0.9437142346888813  0.9858232541974742  0.614082805245825  1.0000
  H   H985      1.0  0.978783992421037  0.9414045451168733  0.6301846378966224  1.0000
  H   H986      1.0  0.9828229816594434  0.903686636261573  0.635363576858786  1.0000
  H   H987      1.0  0.980031355042695  0.8823753183753783  0.5422498722065884  1.0000
  H   H988      1.0  0.9719563689153901  0.9177018716779258  0.53655504928571  1.0000
  C   C1245     1.0  0.9577165505611138  0.5739068980251708  0.9414547256962734  1.0000
  C   C1246     1.0  0.9815684596578508  0.589337406346341  0.926563322074149  1.0000
  C   C1247     1.0  0.9842824183577458  0.5854593388187309  0.8957822458708288  1.0000
  C   C1248     1.0  0.9636151731882133  0.5675488092312194  0.8790975313446002  1.0000
  C   C1249     1.0  0.9390849849284997  0.5528379678787919  0.8949135062174085  1.0000
  C   C1250     1.0  0.936591193306041  0.5558890598850853  0.925761580337445  1.0000
  H   H989      1.0  0.9982533544463554  0.603867002701838  0.939531885486518  1.0000
  H   H990      1.0  0.5039795271119851  0.5955619420920181  0.8857526577384112  1.0000
  H   H991      1.0  0.9217131476848062  0.5372937729259739  0.8837293206535813  1.0000
  H   H992      1.0  0.9182520406922287  0.5428037874195246  0.9371154939569533  1.0000
  C   C1251     1.0  0.931458285446694  0.57063198322205  0.834112896797442  1.0000
  C   C1252     1.0  0.9458508627767136  0.5575057807407506  0.8253272366520555  1.0000
  C   C1253     1.0  0.9396560661574068  0.5404448321377033  0.7991243514243433  1.0000
  C   C1254     1.0  0.9204373139798825  0.5371599474232472  0.7816847937031121  1.0000
  C   C1255     1.0  0.9058007534177507  0.5502652017800692  0.791071201835054  1.0000
  C   C1256     1.0  0.911364371106521  0.5667715584509347  0.8176626749797204  1.0000
  C   C1257     1.0  0.9690194480788951  0.5617802204455213  0.8445154399995799  1.0000
  C   C1258     1.0  0.9730148654925934  0.5367058197323235  0.8446472025691217  1.0000
  C   C1259     1.0  0.998521610288796  0.5405952814899707  0.8462730186814352  1.0000
  C   C1260     1.0  0.5039949313936769  0.5200476879287401  0.8414447021500866  1.0000
  C   C1261     1.0  0.9836812260388859  0.9949117508561491  0.83707867124408  1.0000
  C   C1262     1.0  0.9575614465584688  0.9904306637465683  0.840723357913442  1.0000
  C   C1263     1.0  0.9523654512522661  0.511225539323678  0.8434747390265881  1.0000
  C   C1264     1.0  0.5038250924985094  0.5775924922861705  0.7999662919110772  1.0000
  C   C1265     1.0  0.5197829882031232  0.5953310838222768  0.780222005854808  1.0000
  C   C1266     1.0  0.5260430912351006  0.6217197783303763  0.7865667085678338  1.0000
  C   C1267     1.0  0.5167344702636744  0.6286084508414662  0.8147705982414705  1.0000
  C   C1268     1.0  0.9995227462908226  0.6105358071585991  0.8336394448526474  1.0000
  C   C1269     1.0  0.9924478584826972  0.58457476402167  0.8264662012362313  1.0000
  C   C1270     1.0  0.5394608226540364  0.6429137612484294  0.7622799637582054  1.0000
  C   C1271     1.0  0.5353879838132778  0.5979287018636035  0.6757030225136199  1.0000
  C   C1272     1.0  0.5220247612921853  0.6119379440929742  0.6804933735588293  1.0000
  C   C1273     1.0  0.5249628896452408  0.6284120294327533  0.7062942712862443  1.0000
  C   C1274     1.0  0.5397138216905557  0.6293284322849685  0.7284281497053916  1.0000
  C   C1275     1.0  0.5557925071484194  0.6176264060657417  0.7206965901163404  1.0000
  C   C1276     1.0  0.5532637696197699  0.6018724604857353  0.6950162886390145  1.0000
  C   C1277     1.0  0.5700545541673178  0.6635691029833882  0.7656901577190607  1.0000
  C   C1278     1.0  0.5835361290599341  0.6639190951260666  0.7893404223198852  1.0000
  C   C1279     1.0  0.6073563211457493  0.6854894081751439  0.796937986075504  1.0000
  C   C1280     1.0  0.618967484295355  0.7068340869081644  0.7805770948134041  1.0000
  C   C1281     1.0  0.6083605668634882  0.7045551833672165  0.7544501405579702  1.0000
  C   C1282     1.0  0.5844898073198164  0.6829125549569613  0.7469396740940824  1.0000
  C   C1283     1.0  0.5309871126942345  0.6832808360897821  0.7816579945364257  1.0000
  C   C1284     1.0  0.5142434992783211  0.6931274069734348  0.7940481426011446  1.0000
  C   C1285     1.0  0.9870019155744633  0.6773784455925053  0.7921074362802649  1.0000
  C   C1286     1.0  0.9778753562609221  0.653850950151519  0.7756840136292296  1.0000
  C   C1287     1.0  0.9940204986362783  0.6430396480244489  0.7650000791768837  1.0000
  C   C1288     1.0  0.5215734673193306  0.6575203059503223  0.7678742898040093  1.0000
  H   H993      1.0  0.9360819479687196  0.5839159050830792  0.8536226901452043  1.0000
  H   H994      1.0  0.9491506529901741  0.528487203373215  0.7911292666962081  1.0000
  H   H995      1.0  0.9167404346112379  0.5237915545821222  0.761547453202108  1.0000
  H   H996      1.0  0.9001573469225725  0.5777979180661125  0.8243513003318893  1.0000
  H   H997      1.0  0.5152019386624808  0.5603844115102629  0.8484750168775084  1.0000
  H   H998      1.0  0.5245592890122098  0.5240319854339848  0.8405871288161191  1.0000
  H   H999      1.0  0.9411089936638426  0.9698350289758686  0.8379228449947042  1.0000
  H   H1000     1.0  0.9323559470932586  0.5074233643799466  0.8424675370119542  1.0000
  H   H1001     1.0  0.9969730821501066  0.5572256526750666  0.7917545805855596  1.0000
  H   H1002     1.0  0.5242391072928255  0.5875624260654592  0.7584878816720675  1.0000
  H   H1003     1.0  0.5219019115570445  0.6488257575962949  0.8224530260249298  1.0000
  H   H1004     1.0  0.9912286523569601  0.6177988938549404  0.853633856464657  1.0000
  H   H1005     1.0  0.5086099276656173  0.6107375196845731  0.6649654897279009  1.0000
  H   H1006     1.0  0.5130858031902963  0.6383610301280871  0.7102181159419241  1.0000
  H   H1007     1.0  0.5691854314975241  0.6188397963912049  0.7359051172109214  1.0000
  H   H1008     1.0  0.5650075267478724  0.5916161669975022  0.6908959167609672  1.0000
  H   H1009     1.0  0.5744411080715167  0.648067741223061  0.8036355444832352  1.0000
  H   H1010     1.0  0.6155589675179205  0.6868069198575549  0.8169189981041703  1.0000
  H   H1011     1.0  0.6176458722114195  0.7214639021484451  0.7413989463816512  1.0000
  H   H1012     1.0  0.5760300627759849  0.682055823679733  0.7268045668569687  1.0000
  H   H1013     1.0  0.5520221313989828  0.6971395321274887  0.7852111173862756  1.0000
  H   H1014     1.0  0.523458735881865  0.7123677769364657  0.8062573962907299  1.0000
  H   H1015     1.0  0.9565154931044317  0.6408406768258013  0.7748398398786054  1.0000
  H   H1016     1.0  0.9850961494938159  0.6226053686991494  0.7554997745865242  1.0000
  C   C1289     1.0  0.9910627297534843  0.864372344807435  0.6452122706160698  1.0000
  C   C1290     1.0  0.5121052230063347  0.8828862381483774  0.6610394118083306  1.0000
  C   C1291     1.0  0.5085548543486968  0.8865256007133113  0.6918606867616808  1.0000
  C   C1292     1.0  0.9852181908672495  0.8706414892453224  0.7075203331621511  1.0000
  C   C1293     1.0  0.9643146685250213  0.8507114644904802  0.6912889712057023  1.0000
  C   C1294     1.0  0.9673202261312949  0.8479423216973868  0.6602644692383131  1.0000
  H   H1017     1.0  0.5314302667446806  0.8950345160187267  0.6495113036053604  1.0000
  H   H1018     1.0  0.5256775506585519  0.9014026947276025  0.703190034478393  1.0000
  H   H1019     1.0  0.9463766419721494  0.8365925642660168  0.7028215459364537  1.0000
  H   H1020     1.0  0.9507201764809631  0.8321804814535134  0.6484460367295725  1.0000
  C   C1295     1.0  0.937501893797354  0.8723061630951973  0.748525291456366  1.0000
  C   C1296     1.0  0.955232495021267  0.867211565742582  0.7600935984093661  1.0000
  C   C1297     1.0  0.9499618870989642  0.8609314934410073  0.7892734244031689  1.0000
  C   C1298     1.0  0.9292047500710157  0.8615466145327735  0.8073918943471243  1.0000
  C   C1299     1.0  0.9132764966117991  0.8688478276330329  0.7964980330890675  1.0000
  C   C1300     1.0  0.9165250854449103  0.8727251683526079  0.7665499643169188  1.0000
  C   C1301     1.0  0.9841017400281462  0.8739954650089018  0.7427791034660052  1.0000
  C   C1302     1.0  0.5000434357199941  0.9040454012868783  0.7578692675743877  1.0000
  C   C1303     1.0  0.5101322426447745  0.9102432327809258  0.7861446216925215  1.0000
  C   C1304     1.0  0.5172283442124832  0.9345208432429906  0.8023246185794878  1.0000
  C   C1305     1.0  0.5141418723430431  0.9527949128359785  0.7908367091265474  1.0000
  C   C1306     1.0  0.5057303002716276  0.9479173217106672  0.762344728411031  1.0000
  C   C1307     1.0  0.9987235597168761  0.9238060667726674  0.7465309868021133  1.0000
  C   C1308     1.0  0.9758373381425369  0.8279382008528823  0.7499635134018742  1.0000
  C   C1309     1.0  0.9821921905837941  0.8119170339841603  0.7624608581333391  1.0000
  C   C1310     1.0  0.5064097740989776  0.8224325672190426  0.7742011264059108  1.0000
  C   C1311     1.0  0.5259258739051362  0.847737574544843  0.7674566694564784  1.0000
  C   C1312     1.0  0.5196946216053904  0.8627896000729965  0.753697530626858  1.0000
  C   C1313     1.0  0.9939936277245165  0.8545740396461285  0.7484113949979485  1.0000
  C   C1314     1.0  0.5106750554054875  0.8107884098369723  0.8006072386476623  1.0000
  C   C1315     1.0  0.9879038556288937  0.8635133245686394  0.8570328841060596  1.0000
  C   C1316     1.0  0.9691250810856106  0.8378019620859959  0.8502236625038015  1.0000
  C   C1317     1.0  0.9765585873349765  0.820173264507421  0.8351893299926826  1.0000
  C   C1318     1.0  0.5032536854993942  0.8278574633245368  0.8274555371397407  1.0000
  C   C1319     1.0  0.5222302403071931  0.8532544472020046  0.8377665165223664  1.0000
  C   C1320     1.0  0.5146484596543786  0.8713872842066378  0.8519700748662042  1.0000
  C   C1321     1.0  0.5396534196691746  0.8146339181286881  0.8002566162168473  1.0000
  C   C1322     1.0  0.5535038187273914  0.8127848656212691  0.7740559642530256  1.0000
  C   C1323     1.0  0.5786438026834766  0.8162451324439106  0.7738929359890161  1.0000
  C   C1324     1.0  0.589564522094943  0.8197962237749032  0.8005268411476026  1.0000
  C   C1325     1.0  0.5750217785597508  0.8203452944809022  0.8271227808200501  1.0000
  C   C1326     1.0  0.5497473088090163  0.8164846435352338  0.8269664523477123  1.0000
  C   C1327     1.0  0.9811344689197304  0.7666253247089753  0.8237259864425379  1.0000
  C   C1328     1.0  0.9680046244362294  0.7395944838296201  0.8218522780383745  1.0000
  C   C1329     1.0  0.9686498855256724  0.7251716394901092  0.7957431898940649  1.0000
  C   C1330     1.0  0.9818526475632838  0.7377303079993395  0.7710008592507661  1.0000
  C   C1331     1.0  0.9929351481779091  0.7643058561859385  0.771876298695858  1.0000
  C   C1332     1.0  0.9933828523854376  0.7797452593822918  0.7984633053127432  1.0000
  H   H1021     1.0  0.9407213898744271  0.8784652816941144  0.7265187090789795  1.0000
  H   H1022     1.0  0.9640436132463869  0.8577909253374268  0.7986709988545636  1.0000
  H   H1023     1.0  0.9270378208021706  0.8575022203632159  0.8307764005449745  1.0000
  H   H1024     1.0  0.9036620572753459  0.877513443718981  0.7574829129213242  1.0000
  H   H1025     1.0  0.5089104935414147  0.8952417381554276  0.7975744662843082  1.0000
  H   H1026     1.0  0.5248373469359071  0.9387675081628606  0.8240297103316515  1.0000
  H   H1027     1.0  0.501034185381867  0.9613016765603382  0.7538851247936634  1.0000
  H   H1028     1.0  0.9906107997503705  0.9204461075498617  0.7249308584528051  1.0000
  H   H1029     1.0  0.9560427439287823  0.8197370747473675  0.7425513105491701  1.0000
  H   H1030     1.0  0.9660774428153102  0.7933845159141861  0.7683075429987744  1.0000
  H   H1031     1.0  0.5459785412978393  0.857944549226536  0.7751212311288134  1.0000
  H   H1032     1.0  0.5347129724655282  0.8825907996124697  0.7503364684715944  1.0000
  H   H1033     1.0  0.9475735769403507  0.8309967410370741  0.855480765702134  1.0000
  H   H1034     1.0  0.9604019725273331  0.8012417435134235  0.8279468551956596  1.0000
  H   H1035     1.0  0.5435339944571527  0.8611677594015631  0.8320024624208813  1.0000
  H   H1036     1.0  0.5288701483844671  0.891471347464336  0.8573343747312826  1.0000
  H   H1037     1.0  0.5449899226909662  0.8087685585110375  0.7531816466681431  1.0000
  H   H1038     1.0  0.5902421087142802  0.8159691098190753  0.7533111759737945  1.0000
  H   H1039     1.0  0.5827885480323977  0.8212601390365832  0.8478117375020177  1.0000
  H   H1040     1.0  0.5378881378459638  0.8168724065636912  0.8485129823636476  1.0000
  H   H1041     1.0  0.9825525420206946  0.7778667747730386  0.8458330656949988  1.0000
  H   H1042     1.0  0.9583431006999654  0.7306477820556019  0.841880188608742  1.0000
  H   H1043     1.0  0.9821965706458399  0.7263850204102303  0.7497826190267404  1.0000
  H   H1044     1.0  0.5032170053649133  0.7742906289116386  0.7525250670843241  1.0000
  C   C1333     1.0  0.7823414556989059  0.8871615591104305  0.8921621251042625  1.0000
  C   C1334     1.0  0.7796621546717931  0.8637922140623082  0.8787558419693476  1.0000
  C   C1335     1.0  0.7654310868444916  0.851689542057368  0.85434850090963  1.0000
  C   C1336     1.0  0.7532245477425329  0.8624471361409334  0.8419471865254583  1.0000
  C   C1337     1.0  0.7562636194427784  0.8865526897465938  0.8548599183405637  1.0000
  C   C1338     1.0  0.7704495861824712  0.898613395793867  0.8800466684980801  1.0000
  H   H1045     1.0  0.7896435218038875  0.8549884251516854  0.8873405083645854  1.0000
  H   H1046     1.0  0.764935229103404  0.8336469621420985  0.8437136982628759  1.0000
  H   H1047     1.0  0.7466276257336066  0.8954594804972472  0.8453730133335475  1.0000
  H   H1048     1.0  0.771606772359034  0.9173700423870055  0.8898819626720206  1.0000
  C   C1339     1.0  0.6961985746298822  0.8518716052316337  0.8394548640236151  1.0000
  C   C1340     1.0  0.7112420376157035  0.8507808533942339  0.813343542615415  1.0000
  C   C1341     1.0  0.7014897430307628  0.8488667155103851  0.7862183194009095  1.0000
  C   C1342     1.0  0.6789426425441929  0.8503793812439001  0.7853294803724744  1.0000
  C   C1343     1.0  0.6647337275620425  0.852767419314097  0.8120192171283244  1.0000
  C   C1344     1.0  0.6728351584534928  0.8526356176406739  0.8388809152037462  1.0000
  C   C1345     1.0  0.737546319832415  0.8483107934086608  0.8127360948371879  1.0000
  C   C1346     1.0  0.7238249443001477  0.8169023144431076  0.8069206756662204  1.0000
  C   C1347     1.0  0.7201619955895272  0.80436434342128  0.7780133078670635  1.0000
  C   C1348     1.0  0.7038701662019942  0.7782728313133781  0.7725998761963933  1.0000
  C   C1349     1.0  0.6908709457013724  0.7635467872348675  0.7958905853108406  1.0000
  C   C1350     1.0  0.6944462626250223  0.7747373370146021  0.8247666874155298  1.0000
  C   C1351     1.0  0.7108741356756847  0.8016655563125151  0.8305285082531244  1.0000
  C   C1352     1.0  0.7660352826621084  0.886332615640572  0.7790115768261351  1.0000
  C   C1353     1.0  0.7883681958895549  0.9005055552828842  0.7615809521604662  1.0000
  C   C1354     1.0  0.8086730409138337  0.89421841815029  0.7560000256980052  1.0000
  C   C1355     1.0  0.8026194386958004  0.869247296162073  0.7624653246611202  1.0000
  C   C1356     1.0  0.7800278751355707  0.8543256103685973  0.7788865140482649  1.0000
  C   C1357     1.0  0.7611540276828355  0.8626108857578513  0.7882639891246446  1.0000
  C   C1358     1.0  0.8386372631543372  0.9139166026296756  0.7442351915226377  1.0000
  C   C1359     1.0  0.8377322195287924  0.8730406774318884  0.6546344109702603  1.0000
  C   C1360     1.0  0.8250229260861073  0.8881695845540434  0.6616289934754334  1.0000
  C   C1361     1.0  0.8254775393963955  0.9006179570519178  0.6898775484268806  1.0000
  C   C1362     1.0  0.8395110134834272  0.8995421100385401  0.7113548472622091  1.0000
  C   C1363     1.0  0.850899714832524  0.8833638208203598  0.7039292448261618  1.0000
  C   C1364     1.0  0.8503974502400437  0.8699796024428326  0.6761273426528226  1.0000
  C   C1365     1.0  0.8596874378234977  0.9168982668332424  0.7662909057056162  1.0000
  C   C1366     1.0  0.8867721834189554  0.9253202278923938  0.7574829129213242  1.0000
  C   C1367     1.0  0.9028498462258626  0.9239652960677619  0.7755053525179865  1.0000
  C   C1368     1.0  0.8930115880274484  0.9159461017961371  0.8036333112193446  1.0000
  C   C1369     1.0  0.8678668007248104  0.9115144661442337  0.814227915116069  1.0000
  C   C1370     1.0  0.8514175644164865  0.9124440481568368  0.7960402139915068  1.0000
  C   C1371     1.0  0.8624397029075175  0.958807631576695  0.7227288602567322  1.0000
  C   C1372     1.0  0.8706857892376438  0.9850799756517241  0.7236936302574457  1.0000
  C   C1373     1.0  0.8631842570785733  0.9976065005250205  0.747946876108716  1.0000
  C   C1374     1.0  0.8481034752661539  0.983833766289079  0.7714832442511228  1.0000
  C   C1375     1.0  0.840117615606304  0.9574670056895616  0.7700204564028188  1.0000
  C   C1376     1.0  0.846483554899451  0.9438682888247273  0.7454456205513106  1.0000
  H   H1049     1.0  0.7018158339090388  0.8518879208466114  0.8607847674421677  1.0000
  H   H1050     1.0  0.7115369219628563  0.8450565222687634  0.7652055394548135  1.0000
  H   H1051     1.0  0.6710290231005572  0.8474985309474948  0.7642899012596918  1.0000
  H   H1052     1.0  0.6604425245768333  0.8521689671962491  0.8593733446633463  1.0000
  H   H1053     1.0  0.7295226873880782  0.8159227499435094  0.7590796966030606  1.0000
  H   H1054     1.0  0.7003598868567863  0.7694665256754761  0.748992043609489  1.0000
  H   H1055     1.0  0.6844596137207394  0.7633313320546039  0.8442385152771529  1.0000
  H   H1056     1.0  0.7115569854019318  0.8108880931135098  0.853497627367334  1.0000
  H   H1057     1.0  0.7521239403166518  0.8934348815038371  0.7849185598166148  1.0000
  H   H1058     1.0  0.7910066529098748  0.9180499843109168  0.7547136656970539  1.0000
  H   H1059     1.0  0.817210093975008  0.8627969826402426  0.7580255960467256  1.0000
  H   H1060     1.0  0.7772911233618296  0.8367310395493341  0.7864438790538542  1.0000
  H   H1061     1.0  0.8150763415163572  0.8912881628407212  0.645118473532667  1.0000
  H   H1062     1.0  0.8151674345226118  0.9119045400967809  0.6940559851660821  1.0000
  H   H1063     1.0  0.8606836346012465  0.8804697610538899  0.7199261140741038  1.0000
  H   H1064     1.0  0.8585506230988129  0.8564327079660082  0.6726300514002361  1.0000
  H   H1065     1.0  0.894212798197123  0.9307251193849062  0.7348979151962877  1.0000
  H   H1066     1.0  0.9230330911542598  0.9278702379232654  0.7671172133451162  1.0000
  H   H1067     1.0  0.859117614004213  0.9053050224191017  0.8355779179096366  1.0000
  H   H1068     1.0  0.8324773964103961  0.9097977172804426  0.8059715385127405  1.0000
  H   H1069     1.0  0.8693801915658885  0.9498521202324486  0.7030828378116469  1.0000
  H   H1070     1.0  0.8838036719566922  0.9956569245731074  0.7050883087853523  1.0000
  H   H1071     1.0  0.8410039571158625  0.9934472624082609  0.7904235553067973  1.0000
  H   H1072     1.0  0.8291170922542647  0.9475002575301147  0.7900595332926391  1.0000
  C   C1377     1.0  0.5823552856725508  0.9571593660462355  0.09162099106776032  1.0000
  C   C1378     1.0  0.5757943546278771  0.9761778813035908  0.10510722504995657  1.0000
  C   C1379     1.0  0.5718110098151219  0.9799120579782779  0.1354063629056983  1.0000
  C   C1380     1.0  0.5733269746008629  0.9635441820645732  0.15290912199503173  1.0000
  C   C1381     1.0  0.5845122247660128  0.9475563818754456  0.1393688430266844  1.0000
  C   C1382     1.0  0.5892538856525272  0.9448760112039585  0.10912218687237037  1.0000
  H   H1073     1.0  0.5701253345483988  0.9857853465130176  0.09132352031754032  1.0000
  H   H1074     1.0  0.5654390889860568  0.9946385757302201  0.14460115699583184  1.0000
  H   H1075     1.0  0.5879308395679369  0.9359545993690086  0.15208705755692375  1.0000
  H   H1076     1.0  0.5951755119861954  0.9301051737674149  0.09908187907327817  1.0000
  C   C1383     1.0  0.5310284074437641  0.9119172748268719  0.1804088635639809  1.0000
  C   C1384     1.0  0.5489000940131142  0.9332748094813136  0.19829998724387932  1.0000
  C   C1385     1.0  0.5515890594147131  0.9280224511364888  0.2260733036394197  1.0000
  C   C1386     1.0  0.538412607737663  0.9029459703935548  0.23454630684013053  1.0000
  C   C1387     1.0  0.5207688527177519  0.8825138605086963  0.21575316787484278  1.0000
  C   C1388     1.0  0.5168753462449229  0.8870743438225094  0.18880839238269295  1.0000
  C   C1389     1.0  0.5619330350952596  0.9618151814918984  0.18797471497235416  1.0000
  C   C1390     1.0  0.5367713059585821  0.9664945719621523  0.1973541999862354  1.0000
  C   C1391     1.0  0.5331039536897836  0.9754948386375702  0.2270939052373967  1.0000
  C   C1392     1.0  0.510932509804956  0.9782696440406236  0.23739148503667917  1.0000
  C   C1393     1.0  0.9924356431201818  0.9729853578451353  0.2168992789034682  1.0000
  C   C1394     1.0  0.9957708550339088  0.9633901031202738  0.18810759417384132  1.0000
  C   C1395     1.0  0.5169253378245906  0.9591235915832917  0.17835158086801492  1.0000
  C   C1396     1.0  0.6069641678583861  0.9814619642210954  0.21165512863570085  1.0000
  C   C1397     1.0  0.6274476973658643  0.5011117083600575  0.22707380586238185  1.0000
  C   C1398     1.0  0.6315761468311551  0.5268746216454228  0.23056663058718727  1.0000
  C   C1399     1.0  0.614417473287039  0.5316580028602785  0.21698056970908383  1.0000
  C   C1400     1.0  0.5938092309426454  0.5113259615138889  0.20177673246867284  1.0000
  C   C1401     1.0  0.5880853004388855  0.9853538633727027  0.20167310902415175  1.0000
  C   C1402     1.0  0.6529795303543587  0.5491208559593016  0.2523275539366144  1.0000
  C   C1403     1.0  0.5970066459644623  0.528256481169944  0.3313806291339687  1.0000
  C   C1404     1.0  0.6151234167551142  0.5185920908654882  0.32458704037894437  1.0000
  C   C1405     1.0  0.6331185929971637  0.5255953382703435  0.30008366897193345  1.0000
  C   C1406     1.0  0.6349998857272767  0.5438657386262342  0.28309299729270093  1.0000
  C   C1407     1.0  0.6174250444823687  0.5540803151659849  0.29065706208996184  1.0000
  C   C1408     1.0  0.5982368960240494  0.5459299769229385  0.31427606099631866  1.0000
  C   C1409     1.0  0.666032658426748  0.5783118298191854  0.24412924219444002  1.0000
  C   C1410     1.0  0.6737606962935755  0.5826522271461799  0.21444894176276708  1.0000
  C   C1411     1.0  0.6929292558140314  0.6064737377556707  0.207061528139248  1.0000
  C   C1412     1.0  0.7058948842552166  0.6264689483838606  0.22853212718290483  1.0000
  C   C1413     1.0  0.696243543816478  0.6236168438740612  0.2580625756075225  1.0000
  C   C1414     1.0  0.6764838616920446  0.6000659879997693  0.2654703119324455  1.0000
  C   C1415     1.0  0.6970442409594819  0.5586866998877342  0.274450266036309  1.0000
  C   C1416     1.0  0.7229381390676546  0.5637935386729845  0.2702405636026401  1.0000
  C   C1417     1.0  0.7330228765936627  0.5572662537144085  0.24295231212412516  1.0000
  C   C1418     1.0  0.716534548224246  0.5452868020074124  0.2199467908084998  1.0000
  C   C1419     1.0  0.6906825395429126  0.5407932984714722  0.22331075620682103  1.0000
  C   C1420     1.0  0.6799087175491452  0.5473382489718116  0.25100546171341437  1.0000
  H   H1077     1.0  0.5270516808057921  0.9153831400700885  0.1594114931387296  1.0000
  H   H1078     1.0  0.5637074192555167  0.9441537689196784  0.24205677330401837  1.0000
  H   H1079     1.0  0.5419329387303536  0.8996953700041822  0.2557399811613603  1.0000
  H   H1080     1.0  0.5037330339257889  0.8713938174610776  0.17290532021815372  1.0000
  H   H1081     1.0  0.5482673889247723  0.9806415565385149  0.24221980156802786  1.0000
  H   H1082     1.0  0.5079832651064113  0.9844616292900622  0.26041643574815226  1.0000
  H   H1083     1.0  0.9812060561623623  0.9580163120962831  0.17272040596801694  1.0000
  H   H1084     1.0  0.5184351629541986  0.951321554387826  0.15591978504586945  1.0000
  H   H1085     1.0  0.6043103441506  0.9618268454936452  0.20957395001610613  1.0000
  H   H1086     1.0  0.639655029714811  0.9957904247269264  0.23659644309164676  1.0000
  H   H1087     1.0  0.6168073399954336  0.5515299860530717  0.21830712846006492  1.0000
  H   H1088     1.0  0.5809310727818916  0.5155298523727295  0.19197940378087147  1.0000
  H   H1089     1.0  0.6130868658261566  0.5036862147344469  0.3372742125411052  1.0000
  H   H1090     1.0  0.6457257340078666  0.5163469850363981  0.2933660111891875  1.0000
  H   H1091     1.0  0.6173484177352431  0.5665032592414136  0.2746490265225672  1.0000
  H   H1092     1.0  0.5847741264041467  0.5544371121024133  0.31781801752671596  1.0000
  H   H1093     1.0  0.667820722016606  0.5670476086440686  0.19576389276978148  1.0000
  H   H1094     1.0  0.7004802891231043  0.6083762421596249  0.18381436767066617  1.0000
  H   H1095     1.0  0.7064502344659032  0.6391931548444992  0.2749058518699793  1.0000
  H   H1096     1.0  0.6708357613322518  0.5975200303780115  0.28975705674207397  1.0000
  H   H1097     1.0  0.6902900149051229  0.5665063448866772  0.2945943063289848  1.0000
  H   H1098     1.0  0.7364044169995019  0.5748865210790005  0.28834563396325236  1.0000
  H   H1099     1.0  0.724194539213151  0.5418279523044178  0.19721707758335622  1.0000
  H   H1100     1.0  0.6811131684661792  0.5344825953102709  0.20294964266398477  1.0000
  C   C1421     1.0  0.8701834296851115  0.7809686747994062  0.1519678012651689  1.0000
  C   C1422     1.0  0.846225629668898  0.759027126823652  0.1569792454355419  1.0000
  C   C1423     1.0  0.8430699966341575  0.7439441721322722  0.17921540734087602  1.0000
  C   C1424     1.0  0.8642433877689171  0.7493400580703474  0.1954416327903765  1.0000
  C   C1425     1.0  0.8888231325365866  0.7715183477826367  0.1893030603344477  1.0000
  C   C1426     1.0  0.8914381712551925  0.7870596675411434  0.16870276422893452  1.0000
  H   H1101     1.0  0.8287075783522285  0.7542717978340329  0.1459589814412805  1.0000
  H   H1102     1.0  0.8227504291229751  0.7279254036382741  0.1830307153714755  1.0000
  H   H1103     1.0  0.9055423749486193  0.7758627655732159  0.20138300804477052  1.0000
  H   H1104     1.0  0.9104631999524958  0.8052631106689916  0.1667948868872457  1.0000
  C   C1427     1.0  0.9001519299745683  0.726253486727137  0.20230668598989812  1.0000
  C   C1428     1.0  0.8805667280301359  0.7237466448853043  0.22520233072210888  1.0000
  C   C1429     1.0  0.8788967097760307  0.7109509459351319  0.24963647094851302  1.0000
  C   C1430     1.0  0.8985335502882517  0.7048709487948215  0.2526536104646333  1.0000
  C   C1431     1.0  0.9196534734221881  0.7105272923493039  0.2310914476014643  1.0000
  C   C1432     1.0  0.9201214984005948  0.7211444626868755  0.20579884073553636  1.0000
  C   C1433     1.0  0.8602165841595739  0.735441065891292  0.22512863301372105  1.0000
  C   C1434     1.0  0.8323160577695217  0.7091528597327293  0.22608223669498187  1.0000
  C   C1435     1.0  0.8123514434386159  0.7059490275430425  0.24821164858634814  1.0000
  C   C1436     1.0  0.7874051564162877  0.6840476947188614  0.24675779379360627  1.0000
  C   C1437     1.0  0.78232762799574  0.6657758586136273  0.22282457465785035  1.0000
  C   C1438     1.0  0.8019220809293296  0.6686818223010034  0.20020674795362284  1.0000
  C   C1439     1.0  0.826680154469124  0.6897890657896273  0.20270845016380634  1.0000
  C   C1440     1.0  0.8818391925001144  0.767730362539429  0.2719646433261374  1.0000
  C   C1441     1.0  0.8860509824681343  0.7890155018157602  0.29186079132696313  1.0000
  C   C1442     1.0  0.8755021846533343  0.805189763733838  0.2881223075741983  1.0000
  C   C1443     1.0  0.854916950978417  0.7942836314310734  0.2691261649212604  1.0000
  C   C1444     1.0  0.8484158072501653  0.7710647682315179  0.2514945465054428  1.0000
  C   C1445     1.0  0.8629766068938843  0.7582610243727725  0.2509518633800414  1.0000
  C   C1446     1.0  0.8888614793948268  0.8354292578174588  0.30289311494623344  1.0000
  C   C1447     1.0  0.875960675351986  0.8492227668868322  0.399006093003427  1.0000
  C   C1448     1.0  0.8943383484145462  0.869331294853293  0.3825469381301432  1.0000
  C   C1449     1.0  0.8994735592761683  0.8636468971237454  0.353179517969535  1.0000
  C   C1450     1.0  0.8858667200057132  0.8387629192291468  0.3386342702504444  1.0000
  C   C1451     1.0  0.8669979812554317  0.8186304445441855  0.35545074734621473  1.0000
  C   C1452     1.0  0.861729671089298  0.824005417307791  0.3853005525071797  1.0000
  C   C1453     1.0  0.8767491598431483  0.8530122859440508  0.29557247591304153  1.0000
  C   C1454     1.0  0.8922536901186197  0.8784202256624403  0.2865590228508199  1.0000
  C   C1455     1.0  0.8798750548159464  0.8924166191900492  0.28128628680525364  1.0000
  C   C1456     1.0  0.8528361819211724  0.8820527497908397  0.2855674536834199  1.0000
  C   C1457     1.0  0.8378094159741878  0.8587495825357494  0.2976002795256523  1.0000
  C   C1458     1.0  0.8498188229235332  0.8449297032124978  0.30290204800179565  1.0000
  C   C1459     1.0  0.9385812702963859  0.849083445756634  0.3070291196715145  1.0000
  C   C1460     1.0  0.961507097615969  0.8494282661217759  0.29455410757895506  1.0000
  C   C1461     1.0  0.9674473310783951  0.8486886290463124  0.26451000845951306  1.0000
  C   C1462     1.0  0.9488840334554504  0.8469702815629396  0.24665283039075084  1.0000
  C   C1463     1.0  0.9253809920998775  0.8465354855971938  0.25934000255291173  1.0000
  C   C1464     1.0  0.919309125055089  0.8461973318733925  0.2899446509088794  1.0000
  H   H1105     1.0  0.9015674109621051  0.7330210652416258  0.18110005873810317  1.0000
  H   H1106     1.0  0.8633365704334236  0.7073484792432291  0.2670581625586198  1.0000
  H   H1107     1.0  0.8996377275570265  0.6968597346405139  0.2721946695068631  1.0000
  H   H1108     1.0  0.9357637868347121  0.7254592538090756  0.188015360375162  1.0000
  H   H1109     1.0  0.8163732690973061  0.7214455050948528  0.2671430265864604  1.0000
  H   H1110     1.0  0.7717810793308869  0.6820297558651224  0.26400752408414146  1.0000
  H   H1111     1.0  0.7978589976449512  0.654117438727206  0.18093926373798427  1.0000
  H   H1112     1.0  0.8416549838277712  0.6910613254261762  0.18485417533810183  1.0000
  H   H1113     1.0  0.8949216437750436  0.7594797601632732  0.27205844040954014  1.0000
  H   H1114     1.0  0.9016686395007228  0.7962040509866418  0.30705591883820105  1.0000
  H   H1115     1.0  0.8451380957216061  0.804709471192239  0.2645189415150752  1.0000
  H   H1116     1.0  0.8334495209536799  0.7649116177486955  0.23617212295244405  1.0000
  H   H1117     1.0  0.9045328095667622  0.8896255231017607  0.3916162227896283  1.0000
  H   H1118     1.0  0.9149992534068438  0.8800638669161254  0.34054594414074707  1.0000
  H   H1119     1.0  0.856592498464992  0.7988320072074014  0.34633456414502817  1.0000
  H   H1120     1.0  0.8459863156081281  0.8080323362371347  0.39785372883590814  1.0000
  H   H1121     1.0  0.9138365136918928  0.8871484615065299  0.2826128455562347  1.0000
  H   H1122     1.0  0.8920645304611963  0.9118979075263335  0.2735547272162023  1.0000
  H   H1123     1.0  0.8166037313165555  0.8505335941319322  0.30223430209852403  1.0000
  H   H1124     1.0  0.8373672185517723  0.826657372019593  0.31216785988364837  1.0000
  H   H1125     1.0  0.9357625300120811  0.8489805911994396  0.3304292587165984  1.0000
  H   H1126     1.0  0.9757420122114079  0.8503744447953073  0.30875543265890243  1.0000
  H   H1127     1.0  0.9516959725554693  0.8453427093780552  0.22306420387330536  1.0000
  H   H1128     1.0  0.9104141100532046  0.8436259085616583  0.24509401219515356  1.0000
  C   C1465     1.0  0.9206344460245438  0.5558522297267404  0.41266250169408253  1.0000
  C   C1466     1.0  0.9412788752487953  0.560147712087962  0.3913437645949824  1.0000
  C   C1467     1.0  0.9361009833542286  0.5501216102080833  0.36232696686518906  1.0000
  C   C1468     1.0  0.9097311770578127  0.5339843899424249  0.3547807681790526  1.0000
  C   C1469     1.0  0.889260715608539  0.5304694650409495  0.3767516183341905  1.0000
  C   C1470     1.0  0.8947233848966945  0.541559313775247  0.4052949641191892  1.0000
  H   H1129     1.0  0.9616758090171603  0.5720255841307579  0.39595098800116757  1.0000
  H   H1130     1.0  0.952891733077796  0.5548545150439235  0.3456176864361647  1.0000
  H   H1131     1.0  0.8686338669358165  0.5185058622586327  0.372155561247458  1.0000
  H   H1132     1.0  0.8780123843841638  0.5388767526424633  0.42187471524256226  1.0000
  C   C1471     1.0  0.8766305241475273  0.9742783538849045  0.3392394847647809  1.0000
  C   C1472     1.0  0.8801384751485175  0.9917000868115382  0.3188229862774592  1.0000
  C   C1473     1.0  0.8649785312148379  0.9806928334152119  0.2937702319533753  1.0000
  C   C1474     1.0  0.8474769358465335  0.9545196377462051  0.28994018438109825  1.0000
  C   C1475     1.0  0.8447295922799934  0.9386506087582991  0.3099479955764511  1.0000
  C   C1476     1.0  0.8591763553857379  0.9482930167344747  0.3348153889976201  1.0000
  C   C1477     1.0  0.9024319197646341  0.5221187635011318  0.3220545191270714  1.0000
  C   C1478     1.0  0.9244388887691682  0.5201272335107394  0.29765834438680644  1.0000
  C   C1479     1.0  0.925129143685746  0.5221274920460707  0.26780853922584147  1.0000
  C   C1480     1.0  0.9435781609147741  0.5193404393552695  0.2472781442801022  1.0000
  C   C1481     1.0  0.9610863449890859  0.5131359864380403  0.25645015907855223  1.0000
  C   C1482     1.0  0.959866998149765  0.5091629147225509  0.2858265122947226  1.0000
  C   C1483     1.0  0.9417710148446714  0.5124571854580577  0.30579412474004564  1.0000
  C   C1484     1.0  0.8699215916781681  0.5361197312867103  0.3066025662684213  1.0000
  C   C1485     1.0  0.8659055087874168  0.5475266007783253  0.28620170062833344  1.0000
  C   C1486     1.0  0.8869609630990076  0.5682602148220018  0.2732085713131685  1.0000
  C   C1487     1.0  0.9115672124601836  0.5790131050674902  0.2850002046552226  1.0000
  C   C1488     1.0  0.9155206622797875  0.5672990659853617  0.3060688161985821  1.0000
  C   C1489     1.0  0.8953016451949124  0.5429689080374143  0.31327109224557537  1.0000
  C   C1490     1.0  0.88448200620435  0.5756991075800699  0.24215727017909272  1.0000
  C   C1491     1.0  0.9107554971038359  0.5262997686894069  0.18041578668204153  1.0000
  C   C1492     1.0  0.8848844550420838  0.5159724475205107  0.19300849178163257  1.0000
  C   C1493     1.0  0.8767985644100158  0.5308780020471943  0.21271771559482006  1.0000
  C   C1494     1.0  0.8937584069315001  0.5568418011691575  0.22074451267020087  1.0000
  C   C1495     1.0  0.9201671815134299  0.5669450800977429  0.20937295626595745  1.0000
  C   C1496     1.0  0.9287655916014562  0.5519780047402434  0.1891974269524251  1.0000
  C   C1497     1.0  0.9013393901015028  0.6061993245089362  0.2359934618412008  1.0000
  C   C1498     1.0  0.9093403557895121  0.6264982099165833  0.2580692753991941  1.0000
  C   C1499     1.0  0.9239964609674122  0.6523368108538699  0.25236328615886305  1.0000
  C   C1500     1.0  0.9295490687262303  0.6577856680333086  0.22299966254686873  1.0000
  C   C1501     1.0  0.9193816895810429  0.6380598998813939  0.2000548860090661  1.0000
  C   C1502     1.0  0.9062250092725475  0.6126301873941056  0.2068049261182249  1.0000
  C   C1503     1.0  0.8432628877272821  0.5602216752203986  0.21168639433016842  1.0000
  C   C1504     1.0  0.8162424216919673  0.5518384466829878  0.2112339350659449  1.0000
  C   C1505     1.0  0.8023316042861989  0.5573189920321929  0.23572100364655485  1.0000
  C   C1506     1.0  0.815565497874983  0.5706703161692507  0.26114224651257795  1.0000
  C   C1507     1.0  0.8420277628401954  0.5778241023605437  0.2618792235964563  1.0000
  C   C1508     1.0  0.8559732657490404  0.5713992975005685  0.23799446628712514  1.0000
  H   H1133     1.0  0.8889847224081896  0.9812409463667165  0.35830485859832556  1.0000
  H   H1134     1.0  0.8679039939992281  0.9921960870943095  0.27641107173220364  1.0000
  H   H1135     1.0  0.8366623704049907  0.946411410090021  0.26973361269948737  1.0000
  H   H1136     1.0  0.8580045641580893  0.9352386255262214  0.34974029157810255  1.0000
  H   H1137     1.0  0.9115305873094336  0.5265359684758953  0.2595007975530306  1.0000
  H   H1138     1.0  0.9426715507151697  0.5204828596511719  0.22445418731877778  1.0000
  H   H1139     1.0  0.972724591829636  0.5032892446664824  0.29388636167568344  1.0000
  H   H1140     1.0  0.9401447163685487  0.5077400389085681  0.32903793531279163  1.0000
  H   H1141     1.0  0.8532538496454188  0.5187058073889552  0.31421576287127406  1.0000
  H   H1142     1.0  0.8462427840994838  0.5388268657519238  0.27736020888568336  1.0000
  H   H1143     1.0  0.9285119345070423  0.5953781365903379  0.27521627555076444  1.0000
  H   H1144     1.0  0.9356030696134486  0.5741289220613166  0.3110355950911443  1.0000
  H   H1145     1.0  0.8709305634706156  0.9956842719033528  0.18706957311751807  1.0000
  H   H1146     1.0  0.8566305436732488  0.5226697450721105  0.2224069543103193  1.0000
  H   H1147     1.0  0.9349012414360053  0.587450330254756  0.21602026623615142  1.0000
  H   H1148     1.0  0.9493644177873684  0.5593827405597558  0.1793855820493352  1.0000
  H   H1149     1.0  0.9045552092755096  0.6227734597651233  0.2814202826386861  1.0000
  H   H1150     1.0  0.9325082950477354  0.6676728362419025  0.2713728283951442  1.0000
  H   H1151     1.0  0.9226629789689982  0.6423458442097012  0.17715388144351804  1.0000
  H   H1152     1.0  0.899353107621413  0.5975545116743293  0.18836263291014105  1.0000
  H   H1153     1.0  0.8518004238682163  0.5539391182985456  0.19226928143386363  1.0000
  H   H1154     1.0  0.8062518049499178  0.5404559527133779  0.19131880432204956  1.0000
  H   H1155     1.0  0.8047788618628137  0.5752850977230647  0.280506877707455  1.0000
  H   H1156     1.0  0.8506559289069799  0.5868378635349837  0.28293220229258204  1.0000
  C   C1509     1.0  0.9319348743603053  0.972310145572132  0.14497835526694414  1.0000
  C   C1510     1.0  0.9571402946725391  0.9782261440821948  0.132950889258049  1.0000
  C   C1511     1.0  0.9618784720227992  0.9620462002123666  0.11080137799166781  1.0000
  C   C1512     1.0  0.9416866745181067  0.937978963773696  0.10093258485936914  1.0000
  C   C1513     1.0  0.9158194445033957  0.9316072973241915  0.1132959337574016  1.0000
  C   C1514     1.0  0.9111872584601107  0.9483646011579938  0.1351799099471975  1.0000
  H   H1157     1.0  0.9739448614074729  0.9974883444834437  0.13825734758836236  1.0000
  H   H1158     1.0  0.9819387192234708  0.9682643434284764  0.1000475423795479  1.0000
  H   H1159     1.0  0.8991211855874928  0.913549950036839  0.10516774650139023  1.0000
  H   H1160     1.0  0.8912006246652445  0.9428381702155549  0.14345995914776563  1.0000
  C   C1515     1.0  0.9272256206448695  0.8836290586610298  0.1144960897721781  1.0000
  C   C1516     1.0  0.9295131059712916  0.8888051077033456  0.08497122450728678  1.0000
  C   C1517     1.0  0.9214802281574297  0.8678696368913986  0.06313280690085792  1.0000
  C   C1518     1.0  0.9106373838075192  0.842208719037492  0.07008652067683402  1.0000
  C   C1519     1.0  0.9063787035138551  0.837354174548118  0.09970920290013102  1.0000
  C   C1520     1.0  0.9151056836247405  0.8583817990390965  0.12178613309006961  1.0000
  C   C1521     1.0  0.9454597483071383  0.9180651313801425  0.0757643707921443  1.0000
  C   C1522     1.0  0.9752658300770688  0.921590463168259  0.07014391555882092  1.0000
  C   C1523     1.0  0.9855495088473452  0.9163274756691023  0.042157992440901085  1.0000
  C   C1524     1.0  0.5096584421770995  0.9160709217108821  0.03766868536813648  1.0000
  C   C1525     1.0  0.524144371274947  0.920552411269005  0.06172607397620642  1.0000
  C   C1526     1.0  0.5138791645813714  0.9251402292397403  0.08959184749681517  1.0000
  C   C1527     1.0  0.9901338571332647  0.9257841388321978  0.0936391916456418  1.0000
  C   C1528     1.0  0.9120125275253056  0.9102836879999122  0.03573557214448458  1.0000
  C   C1529     1.0  0.9059525601806958  0.9171380395645032  0.011460848873048102  1.0000
  C   C1530     1.0  0.924721123434055  0.9383237324176371  0.9966967412926846  1.0000
  C   C1531     1.0  0.9488889685602335  0.9533794977919197  0.009551408246635917  1.0000
  C   C1532     1.0  0.9554109935640703  0.9463729204041011  0.0333794787399643  1.0000
  C   C1533     1.0  0.9371702085713073  0.9243593595634051  0.04671787065260678  1.0000
  C   C1534     1.0  0.9229189768390098  0.9458083223193081  0.9653528825889479  1.0000
  C   C1535     1.0  0.9607466423393229  0.9009350705220006  0.916341673247145  1.0000
  C   C1536     1.0  0.9338172848749202  0.8893711327823597  0.9244149222114492  1.0000
  C   C1537     1.0  0.921647982704193  0.9035718323832275  0.938705577847018  1.0000
  C   C1538     1.0  0.9369266541816751  0.9304701624398395  0.945720259727206  1.0000
  C   C1539     1.0  0.9641942739030144  0.9425115482415283  0.9369301330540384  1.0000
  C   C1540     1.0  0.9754226259430124  0.9276765030477205  0.9224317838766491  1.0000
  C   C1541     1.0  0.9359230596455307  0.9771250409684892  0.9664092164091737  1.0000
  C   C1542     1.0  0.9281309921394916  0.9893263546814901  0.9912967092053574  1.0000
  C   C1543     1.0  0.9414030972241052  0.5159517766318162  0.9976838439323034  1.0000
  C   C1544     1.0  0.959114187165604  0.5319887155433342  0.9765460012083371  1.0000
  C   C1545     1.0  0.9632545148790645  0.5198808482879637  0.9491215206324991  1.0000
  C   C1546     1.0  0.9519399044652272  0.9927354438612048  0.9446706256986518  1.0000
  C   C1547     1.0  0.8951514732548148  0.9366673988895025  0.9220811614458342  1.0000
  C   C1548     1.0  0.8720303361989619  0.9307140947614194  0.9094118553947977  1.0000
  C   C1549     1.0  0.8486378873542845  0.92506342432525  0.9266861515881288  1.0000
  C   C1550     1.0  0.8492055203520968  0.9251637952641684  0.95742926230531  1.0000
  C   C1551     1.0  0.8723508492712979  0.9321221773583844  0.9697680453005465  1.0000
  C   C1552     1.0  0.8955936640495572  0.9378090318754582  0.952504915426668  1.0000
  H   H1161     1.0  0.9348966434698425  0.89944905592406  0.13205110723655017  1.0000
  H   H1162     1.0  0.9249145335191273  0.8714886053008883  0.039646240543210136  1.0000
  H   H1163     1.0  0.9037331610077295  0.8261714130312571  0.05216346132330085  1.0000
  H   H1164     1.0  0.9132302481897366  0.8548005359896803  0.14532183125330927  1.0000
  H   H1165     1.0  0.9740532458463422  0.9097246010812099  0.02343721122566684  1.0000
  H   H1166     1.0  0.5176415862351792  0.9129808625894013  0.014873276097794095  1.0000
  H   H1167     1.0  0.5236993751812615  0.9270123963506751  0.10895893528197187  1.0000
  H   H1168     1.0  0.9819805626639079  0.9283413349274469  0.1157954027036946  1.0000
  H   H1169     1.0  0.8961863816412023  0.8935361390315756  0.046976929263909485  1.0000
  H   H1170     1.0  0.8865061421805479  0.905092669965022  0.003409932547649319  1.0000
  H   H1171     1.0  0.9643712627018687  0.970770160037302  0.00055582129553855  1.0000
  H   H1172     1.0  0.9746281447603405  0.9595039177753841  0.04127562987774852  1.0000
  H   H1173     1.0  0.9216496974123709  0.8685346572209601  0.9215228454731991  1.0000
  H   H1174     1.0  0.9007707149292264  0.8934348891238925  0.9453808036158438  1.0000
  H   H1175     1.0  0.9773930599580538  0.9625410929044667  0.9425311588915141  1.0000
  H   H1176     1.0  0.9962846993801364  0.936620451029077  0.9175342361646937  1.0000
  H   H1177     1.0  0.9144565345857882  0.9779884903318372  0.008349912273525106  1.0000
  H   H1178     1.0  0.9368871786814074  0.5248316661523885  0.019107544434258772  1.0000
  H   H1179     1.0  0.9755889297413928  0.5317393628972418  0.9319856868003815  1.0000
  H   H1180     1.0  0.957136670258104  0.9843478680624557  0.9234970507524369  1.0000
  H   H1181     1.0  0.9133088548596938  0.9439181509773573  0.9076051449073504  1.0000
  H   H1182     1.0  0.8738771397636249  0.9341459171671358  0.8864204036416827  1.0000
  H   H1183     1.0  0.8320746525290358  0.923232500516448  0.9728253835666965  1.0000
  H   H1184     1.0  0.871453953840422  0.9343116361899841  0.9941173214991101  1.0000
  C   C1553     1.0  0.9275774719521571  0.991755579657373  0.16910542170839896  1.0000
  C   C1554     1.0  0.918537331782204  0.5086973439701286  0.156835199914602  1.0000
  H   H1185     1.0  0.9467374768607775  0.5043588338706683  0.17943292724381468  1.0000
  H   H1186     1.0  0.9136237097460644  0.9809555912536401  0.1867209606242047  1.0000
  H   H1187     1.0  0.9021899430193074  0.9956969402460497  0.1419464762091463  1.0000
  H   H1188     1.0  0.9354010521596707  0.5218030111224393  0.1416976906117401  1.0000
  C   C1555     1.0  0.8955383278404724  0.8093354182220135  0.10849821294135334  1.0000
  C   C1556     1.0  0.8715182998783243  0.8001332644677082  0.13228113341727585  1.0000
  H   H1189     1.0  0.888804727940748  0.7953500591065069  0.08870591171143774  1.0000
  H   H1190     1.0  0.9116596940780584  0.8065447639268545  0.11580679234953634  1.0000
  H   H1191     1.0  0.8721252615939635  0.8174079880896218  0.14613719589974564  1.0000
  H   H1192     1.0  0.8531627084106462  0.792879178178649  0.12063868210310988  1.0000
  C   C1557     1.0  0.8393964661187846  0.8967968491907649  0.2766611972879442  1.0000
  C   C1558     1.0  0.8270915354379498  0.9092012893083116  0.3021673041818078  1.0000
  H   H1193     1.0  0.8529942482028579  0.9116285971160507  0.26094348602631984  1.0000
  H   H1194     1.0  0.8223811242905833  0.8825611881850333  0.26405888915362385  1.0000
  H   H1195     1.0  0.8214526503028196  0.8984868690624777  0.32223318023831465  1.0000
  H   H1196     1.0  0.8075161928808559  0.9048826988564135  0.2956841391075686  1.0000
  C   C1559     1.0  0.9448763351753883  0.7082624806336344  0.23630165225809538  1.0000
  C   C1560     1.0  0.9478128875176134  0.686469747937216  0.21529467879811479  1.0000
  H   H1197     1.0  0.9454375084601385  0.7076594063498932  0.2600055151922928  1.0000
  H   H1198     1.0  0.9626155472201626  0.7272612284727508  0.23188648954649674  1.0000
  H   H1199     1.0  0.9687203014348397  0.6908605176218285  0.21486566880474195  1.0000
  H   H1200     1.0  0.9462129765700775  0.6895247953746363  0.1922951872949939  1.0000
  C   C1561     1.0  0.5773132937239035  0.9454673545978408  0.05880898468238236  1.0000
  C   C1562     1.0  0.5505585248343435  0.9191101891892565  0.056874754826785195  1.0000
  H   H1201     1.0  0.5759782813102506  0.9587801989484955  0.04574751749216691  1.0000
  H   H1202     1.0  0.5935553917925036  0.9416823149193329  0.048123933598091105  1.0000
  H   H1203     1.0  0.5503384952370548  0.9064611338794519  0.07313358592908754  1.0000
  H   H1204     1.0  0.5505771805865005  0.9088006376644178  0.034002559365425115  1.0000
  C   C1563     1.0  0.9693474602977066  0.9781020345683004  0.22717206947356564  1.0000
  C   C1564     1.0  0.9799344422330366  0.5076805214400957  0.23403042288141568  1.0000
  H   H1205     1.0  0.9537171548301094  0.9699761568684016  0.2109346777046125  1.0000
  H   H1206     1.0  0.9595646321042498  0.96765822676793  0.24778286191936436  1.0000
  H   H1207     1.0  0.9998107278131526  0.5181068195895588  0.24279151712400626  1.0000
  H   H1208     1.0  0.9820525060283307  0.5164585203487333  0.2128546146713102  1.0000
  C   C1565     1.0  0.7633127805090141  0.5677563506144753  0.23704086260586432  1.0000
  C   C1566     1.0  0.7716980741782066  0.546450354728449  0.23600239489676297  1.0000
  H   H1209     1.0  0.7691648121289455  0.5764288624583881  0.21573954496511047  1.0000
  H   H1210     1.0  0.7748929237675211  0.5853894415938921  0.2526290445618373  1.0000
  H   H1211     1.0  0.7618145869991768  0.5347136096285302  0.2555702531056792  1.0000
  H   H1212     1.0  0.7635049216816304  0.5325186343389063  0.21628647129190384  1.0000
  C   C1567     1.0  0.73244213259474  0.6497079567723534  0.22124521043446008  1.0000
  C   C1568     1.0  0.7546867762043707  0.6421478029922524  0.22311802553306737  1.0000
  H   H1213     1.0  0.7325260096875261  0.6555380754641404  0.19940254962663922  1.0000
  H   H1214     1.0  0.7342009138561207  0.6671425032421111  0.2370609619808792  1.0000
  H   H1215     1.0  0.7528506887646238  0.6273092537063921  0.2045111407762507  1.0000
  H   H1216     1.0  0.7526215335880295  0.6336632319332113  0.24335876615220353  1.0000
  C   C1569     1.0  0.5052773800034461  0.8533614734065109  0.22240092449781482  1.0000
  C   C1570     1.0  0.9924867287209101  0.8458303336152311  0.2536630457431576  1.0000
  H   H1217     1.0  0.989621781211385  0.8413092107139454  0.20603601336071178  1.0000
  H   H1218     1.0  0.5196477114465134  0.8457612405954077  0.2179897816612191  1.0000
  H   H1219     1.0  0.5077909485286883  0.8567292139098529  0.2701467665192374  1.0000
  H   H1220     1.0  0.9868181956004924  0.8250026804180317  0.2545384851882495  1.0000
  C   C1571     1.0  0.8251342567986486  0.9223660960421906  0.9121766360912869  1.0000
  C   C1572     1.0  0.7978041811152382  0.8989766373911948  0.9197875994302491  1.0000
  H   H1221     1.0  0.8227784351676679  0.9405491257383521  0.9166409306084774  1.0000
  H   H1222     1.0  0.8296132022910797  0.9205632423214901  0.8875906339203261  1.0000
  H   H1223     1.0  0.787677551113804  0.9075307169355789  0.9378435379852694  1.0000
  H   H1224     1.0  0.7995669307002483  0.8847569693277642  0.9317132286057356  1.0000
  C   C1573     1.0  0.9734206921106998  0.884078697072219  0.9037482981683868  1.0000
  C   C1574     1.0  0.9784584093160419  0.8834678932482399  0.8695838271708977  1.0000
  H   H1225     1.0  0.9925291663886256  0.8914593757659521  0.9139565474120478  1.0000
  H   H1226     1.0  0.960066988918763  0.8636828237225403  0.9104726557428046  1.0000
  H   H1227     1.0  0.9933182250836807  0.9034746469349881  0.8641145639029638  1.0000
  H   H1228     1.0  0.9604739540014966  0.8786528419747744  0.8595118070245598  1.0000
  C   C1575     1.0  0.6162521856785808  0.8215637627839724  0.8015050107316596  1.0000
  C   C1576     1.0  0.6368580336676926  0.8500758342897673  0.8107842221968555  1.0000
  H   H1229     1.0  0.6224658785060336  0.8146451839172123  0.7799964462018634  1.0000
  H   H1230     1.0  0.6146192810379335  0.8081318533987282  0.816595174840042  1.0000
  H   H1231     1.0  0.6307833212458593  0.858071213691624  0.8325965106157649  1.0000
  H   H1232     1.0  0.638586812483418  0.8636315644939938  0.795446165796623  1.0000
  C   C1577     1.0  0.8967662755791643  0.877622568812114  0.8195475497033365  1.0000
  C   C1578     1.0  0.9075476987390352  0.9073512223521062  0.8221202697052393  1.0000
  H   H1233     1.0  0.8755585179319527  0.8670457684682791  0.8154405774086324  1.0000
  H   H1234     1.0  0.8971928040510961  0.8729309377585875  0.8420499166644232  1.0000
  H   H1235     1.0  0.9062427813293311  0.9151639022082504  0.8457995667366407  1.0000
  H   H1236     1.0  0.929260481425051  0.9170923687051702  0.8151971516445635  1.0000
  C   C1579     1.0  0.957264859829989  0.5747057975044115  0.9751993430823412  1.0000
  C   C1580     1.0  0.9720992946950932  0.5615648802689841  0.9841502647556276  1.0000
  H   H1237     1.0  0.9659910880080594  0.5952614902022705  0.9855929532289168  1.0000
  H   H1238     1.0  0.9363846233120429  0.5653731297494676  0.984824710450571  1.0000
  H   H1239     1.0  0.9933235529068716  0.5704346470266972  0.9745606296096465  1.0000
  H   H1240     1.0  0.9737922456827626  0.5660409157925155  0.00851517380142508  1.0000
  C   C1581     1.0  0.9669639421342042  0.6848207035648648  0.8104246667104785  1.0000
  C   C1582     1.0  0.9532228575780304  0.6955270031704066  0.7934161289201216  1.0000
  H   H1241     1.0  0.9505004287570789  0.6676831738023129  0.8204721209540204  1.0000
  H   H1242     1.0  0.9762284719876614  0.6992797015518575  0.8303677132530056  1.0000
  H   H1243     1.0  0.9325628895547986  0.6894020943367625  0.8037159419832947  1.0000
  H   H1244     1.0  0.9504590687538508  0.6866538329653855  0.7696497345969892  1.0000
  C   C1583     1.0  0.5161602719373828  0.9774166881586414  0.810286204349265  1.0000
  C   C1584     1.0  0.9890249290650104  0.9711728168048488  0.8282505790847732  1.0000
  H   H1245     1.0  0.5225944182309276  0.993589865800579  0.7960134148248204  1.0000
  H   H1246     1.0  0.5328373755478866  0.9851369174179755  0.8254210337354582  1.0000
  H   H1247     1.0  0.9854514653497072  0.9614789384711758  0.8482829561829218  1.0000
  H   H1248     1.0  0.9729070471890495  0.9564316247152003  0.8139666232408758  1.0000
  C   C1585     1.0  0.6425890087418414  0.7329138815716814  0.7915826192659877  1.0000
  C   C1586     1.0  0.6702492024733856  0.7350176039407554  0.7897156106534959  1.0000
  H   H1249     1.0  0.6385760522797606  0.7380289260600376  0.815715268867169  1.0000
  H   H1250     1.0  0.6437355515204788  0.7491361067922613  0.7806396262023392  1.0000
  H   H1251     1.0  0.6737768215759936  0.7270886863069776  0.7670948807062107  1.0000
  H   H1252     1.0  0.6711328293076817  0.7235287167389128  0.805799577193169  1.0000
  C   C1587     1.0  0.8817703606303434  0.546784426071898  0.7754249550179271  1.0000
  C   C1588     1.0  0.8725877991770092  0.5268510429642965  0.7467967452050878  1.0000
  H   H1253     1.0  0.8643651370318585  0.5414983531003067  0.7917076820438581  1.0000
  H   H1254     1.0  0.8862082981394601  0.5659989077306736  0.7691383171660553  1.0000
  H   H1255     1.0  0.8893803609908633  0.5347119418592146  0.7292566906087822  1.0000
  H   H1256     1.0  0.8562648472280513  0.5276346174200858  0.7377944584623187  1.0000
  C   C1589     1.0  0.8702732127215108  0.8541507421791183  0.4330856999730758  1.0000
  C   C1590     1.0  0.893927123807798  0.8643515854806212  0.45225157068169475  1.0000
  H   H1257     1.0  0.8623186468479861  0.8680470153361886  0.4361743039336934  1.0000
  H   H1258     1.0  0.8536024035080298  0.8364790282570116  0.44238277754939614  1.0000
  H   H1259     1.0  0.9041831099617755  0.8526162239476643  0.4456455760934758  1.0000
  H   H1260     1.0  0.8861299375332328  0.8586075614877576  0.4751224261847205  1.0000
  C   C1591     1.0  0.9196074515804582  0.5474357930341682  0.4661179061780611  1.0000
  C   C1592     1.0  0.9269558805747902  0.5680611950044518  0.44457137616212583  1.0000
  H   H1261     1.0  0.8981771231741711  0.5334229753750704  0.4645568547185732  1.0000
  H   H1262     1.0  0.9214495607433167  0.5567823977492178  0.4890736257089273  1.0000
  H   H1263     1.0  0.9486678028092573  0.5828055414416566  0.44512522560697987  1.0000
  H   H1264     1.0  0.916070480720858  0.5789677310908722  0.45229176943172456  1.0000
  C   C1593     1.0  0.5504852261176968  0.5194932132661242  0.35854828436239444  1.0000
  C   C1594     1.0  0.5776658818677489  0.5209440725096717  0.359240596168462  1.0000
  H   H1265     1.0  0.5417239113652993  0.5085478172572535  0.33690125747138494  1.0000
  H   H1266     1.0  0.5543771889454607  0.5400814015197243  0.3589860040849404  1.0000
  H   H1267     1.0  0.5739122969022704  0.5021001079623046  0.36486842117262425  1.0000
  H   H1268     1.0  0.5881217710784015  0.5352792153582419  0.37762035798761073  1.0000
  C   C1595     1.0  0.8406566391564212  0.8604923884643318  0.6231811223358872  1.0000
  C   C1596     1.0  0.8513430391839668  0.8788563991295205  0.5977353135670682  1.0000
  H   H1269     1.0  0.8541274017773511  0.8514926665593556  0.6214503428207184  1.0000
  H   H1270     1.0  0.8209024950281529  0.8435153321464793  0.6193220423330332  1.0000
  H   H1271     1.0  0.8448648944828677  0.8652720814195097  0.5776292387605316  1.0000
  H   H1272     1.0  0.8407012742498675  0.8904548929860233  0.599345496832148  1.0000
  C   C1597     1.0  0.5134665342496477  0.5494232154542749  0.6657225661867942  1.0000
  C   C1598     1.0  0.5286978260536053  0.5757923736628986  0.6511862515232657  1.0000
  H   H1273     1.0  0.998600983209599  0.5504488081830571  0.6828271343244442  1.0000
  H   H1274     1.0  0.5275789207105825  0.5480707402409802  0.6788273586964861  1.0000
  H   H1275     1.0  0.5467401317027005  0.5767584215091789  0.6376727717216049  1.0000
  H   H1276     1.0  0.5163858248511811  0.5764376902419667  0.6352496804003684  1.0000
  C   C1599     1.0  0.9957961865664113  0.8608424763627952  0.6108490391323224  1.0000
  C   C1600     1.0  0.976951782396264  0.8625139462666295  0.5921231214101399  1.0000
  H   H1277     1.0  0.516400554304593  0.8747441885487157  0.6031331123905047  1.0000
  H   H1278     1.0  0.9938482900510598  0.8409124851985638  0.6040733164884223  1.0000
  H   H1279     1.0  0.9560583181124764  0.8495812191645342  0.5980256378728385  1.0000
  H   H1280     1.0  0.9801451580349895  0.8534533293929016  0.5699200118103858  1.0000
