data_image0
_chemical_formula_structural       C6H4C38H24C6H4C38H24C6H4C38H24C6H4C38H24C6H4C38H24C6H4C38H24C2H4C2H4C2H4C2H4C2H4C2H4C2H4C2H4C2H4C2H4C2H4C2H4C2H4C2H4C2H4C2H4C2H4C2H4C6H4C38H24C6H4C38H24C6H4C38H24C6H4C38H24C6H4C38H24C6H4C38H24C2H4C2H4C2H4C2H4C2H4C2H4C2H4C2H4C2H4C2H4C2H4C2H4C2H4C2H4C2H4C2H4C2H4C2H4C6H4C38H24C6H4C38H24C6H4C38H24C6H4C38H24C6H4C38H24C6H4C38H24C2H4C2H4C2H4C2H4C2H4C2H4C2H4C2H4C2H4C2H4C2H4C2H4C2H4C2H4C2H4C2H4C2H4C2H4C6H4C38H24C6H4C38H24C6H4C38H24C6H4C38H24C6H4C38H24C6H4C38H24C2H4C2H4C2H4C2H4C2H4C2H4C2H4C2H4C2H4C2H4C2H4C2H4C2H4C2H4C2H4C2H4C2H4C2H4
_chemical_formula_sum              "C1200 H960"
_cell_length_a       44.17790909198796
_cell_length_b       42.16075367845018
_cell_length_c       49.21998825474598
_cell_angle_alpha    89.9151999999236
_cell_angle_beta     89.74380000013184
_cell_angle_gamma    107.39839999949456

_space_group_name_H-M_alt    "P 1"
_space_group_IT_number       1

loop_
  _space_group_symop_operation_xyz
  'x, y, z'

loop_
  _atom_site_type_symbol
  _atom_site_label
  _atom_site_symmetry_multiplicity
  _atom_site_fract_x
  _atom_site_fract_y
  _atom_site_fract_z
  _atom_site_occupancy
  C   C1        1.0  0.4052889292545209  0.13046452650797202  0.8246910274607583  1.0000
  C   C2        1.0  0.40876509382142046  0.13490754927403392  0.8521436832736655  1.0000
  C   C3        1.0  0.4042311876043048  0.16254805408391582  0.8641979022596026  1.0000
  C   C4        1.0  0.39926398803062324  0.18851381743024165  0.8491225095618692  1.0000
  C   C5        1.0  0.3963406585412081  0.18360039939380288  0.8214280785830549  1.0000
  C   C6        1.0  0.39925148216160883  0.155109369520941  0.8092925906337879  1.0000
  H   H1        1.0  0.4143857518821208  0.11656864870421085  0.8648602443107428  1.0000
  H   H2        1.0  0.4057850176372882  0.16446385971548041  0.8860389361545665  1.0000
  H   H3        1.0  0.3906569707014429  0.2022251816328338  0.8091137989144617  1.0000
  H   H4        1.0  0.39754714027243265  0.1528018921604409  0.7875043815649884  1.0000
  C   C7        1.0  0.43057260439977696  0.263969847627718  0.831399780383658  1.0000
  C   C8        1.0  0.4023851695329951  0.2546403179508487  0.8461561924003206  1.0000
  C   C9        1.0  0.3862174750780239  0.2781522633902802  0.8487100695729689  1.0000
  C   C10       1.0  0.3970537768359457  0.3088063210234792  0.836533947142037  1.0000
  C   C11       1.0  0.42441409875507924  0.3170421329241466  0.8211050344538178  1.0000
  C   C12       1.0  0.4411829173533195  0.2943513485400266  0.8189859462349853  1.0000
  C   C13       1.0  0.392673707767357  0.2204543780283426  0.8632470553886403  1.0000
  C   C14       1.0  0.414883074327593  0.23399061487703499  0.8890702684867792  1.0000
  C   C15       1.0  0.40622107290277437  0.25152808368243734  0.9102347382620201  1.0000
  C   C16       1.0  0.4252718684534576  0.26090958690812394  0.932703574898709  1.0000
  C   C17       1.0  0.4539410820668521  0.2545857640207219  0.9342111141684825  1.0000
  C   C18       1.0  0.46396054375597146  0.24030927909972258  0.9123213188955204  1.0000
  C   C19       1.0  0.4452903691169566  0.23091434540132932  0.8899235926017453  1.0000
  C   C20       1.0  0.3323184277389745  0.20694790010205497  0.85278977153214  1.0000
  C   C21       1.0  0.30066163556993614  0.19269120181548927  0.8582490141438394  1.0000
  C   C22       1.0  0.29040796739623564  0.17567222152323494  0.8820262810901429  1.0000
  C   C23       1.0  0.31357768192757773  0.1752544904136618  0.9008562998937267  1.0000
  C   C24       1.0  0.3453784643625985  0.18865463496487128  0.8951268379789548  1.0000
  C   C25       1.0  0.3555577730125919  0.20541426339449076  0.8709655751809164  1.0000
  C   C26       1.0  0.2538498157289377  0.15952128161620935  0.8891291884851936  1.0000
  C   C27       1.0  0.22963176212836267  0.23775492564565487  0.9354199899980177  1.0000
  C   C28       1.0  0.22831594828195886  0.23789502147321148  0.9075041010941288  1.0000
  C   C29       1.0  0.23796702592292207  0.21489954712244624  0.8929163221763762  1.0000
  C   C30       1.0  0.24715165377361226  0.18992176351963935  0.9058015163123633  1.0000
  C   C31       1.0  0.24999995621653087  0.19195175113273877  0.9337417859052511  1.0000
  C   C32       1.0  0.24165322934866243  0.21551399852479663  0.9483823896491683  1.0000
  C   C33       1.0  0.2476871091190441  0.12472526561146673  0.9041862956661775  1.0000
  C   C34       1.0  0.26542416005493596  0.10335876836955211  0.8988428613272236  1.0000
  C   C35       1.0  0.2605180028941062  0.07466827855498392  0.9131665161141534  1.0000
  C   C36       1.0  0.23753779606870384  0.06623396412451134  0.9328356369641205  1.0000
  C   C37       1.0  0.21793243783214183  0.08570714487900918  0.9368137527191288  1.0000
  C   C38       1.0  0.22282228878736124  0.11443038220745093  0.9222320689736259  1.0000
  C   C39       1.0  0.19979931187114627  0.14803377222162004  0.8649984015484039  1.0000
  C   C40       1.0  0.17899058021278982  0.1359042810620138  0.8444332903777224  1.0000
  C   C41       1.0  0.1876419292067807  0.11874876350277182  0.8235674840427197  1.0000
  C   C42       1.0  0.21725825878126453  0.1143197812650155  0.8229213957842454  1.0000
  C   C43       1.0  0.2383592480580097  0.12753612429141442  0.8431695579979395  1.0000
  C   C44       1.0  0.23045314938284525  0.14567121684663434  0.864378725703012  1.0000
  H   H5        1.0  0.44537532537435565  0.24778371947391267  0.8300080493866301  1.0000
  H   H6        1.0  0.36552159415184643  0.2734675136409228  0.8616216761220384  1.0000
  H   H7        1.0  0.3831485635021117  0.32582929964288193  0.8388338588042787  1.0000
  H   H8        1.0  0.46271704695511195  0.2997308369986667  0.8071023920720417  1.0000
  H   H9        1.0  0.3836354969930964  0.2565560886461417  0.9096435065537936  1.0000
  H   H10       1.0  0.416670358774814  0.2720807991179105  0.9496440903048682  1.0000
  H   H11       1.0  0.4868067681654552  0.23589809111284982  0.9127357906085038  1.0000
  H   H12       1.0  0.4548712485497278  0.2195550442561761  0.8737205930378068  1.0000
  H   H13       1.0  0.3389447570195111  0.21954516770247204  0.8335798203249878  1.0000
  H   H14       1.0  0.2839252613725442  0.19494376962577828  0.8431431455848571  1.0000
  H   H15       1.0  0.30713034774296827  0.1634091761680399  0.9203933586782824  1.0000
  H   H16       1.0  0.362562387336145  0.18662791405275447  0.9101209617133579  1.0000
  H   H17       1.0  0.21974918681337724  0.2562350570123187  0.8973637661946158  1.0000
  H   H18       1.0  0.2370804782187598  0.21599396373043178  0.8710285586274973  1.0000
  H   H19       1.0  0.25792152893258546  0.17372745328193895  0.9446643345768163  1.0000
  H   H20       1.0  0.2438685723701002  0.2160004779489114  0.9702538994053812  1.0000
  H   H21       1.0  0.28444287242916627  0.10982164770530457  0.884159591377558  1.0000
  H   H22       1.0  0.27609244008641654  0.0596574484849255  0.9096109989684616  1.0000
  H   H23       1.0  0.19910916909125756  0.07906175323057214  0.951791622660866  1.0000
  H   H24       1.0  0.20787731429069525  0.13004136378627418  0.925958250942311  1.0000
  H   H25       1.0  0.19145667753236345  0.15926895130319518  0.8819836148843946  1.0000
  H   H26       1.0  0.15529921102194646  0.13820807091111273  0.8452886462167718  1.0000
  H   H27       1.0  0.22365863995286978  0.09939480838862161  0.8072933741358674  1.0000
  H   H28       1.0  0.2611653353613745  0.12297578904514123  0.842279662849475  1.0000
  C   C45       1.0  0.43009768402281034  0.13410218064369478  0.5896022655116988  1.0000
  C   C46       1.0  0.4208077944640946  0.1559374245673974  0.6063111643723671  1.0000
  C   C47       1.0  0.41078970340560145  0.18109372655476338  0.5954759798363818  1.0000
  C   C48       1.0  0.41114112979743017  0.18630151869370537  0.5678851667858132  1.0000
  C   C49       1.0  0.4190376798137063  0.16316478598173767  0.5513916306779697  1.0000
  C   C50       1.0  0.4286096224211095  0.13757491953230386  0.5619728497035485  1.0000
  H   H29       1.0  0.4212898654875843  0.153367304819899  0.6281318810264986  1.0000
  H   H30       1.0  0.40277730757187025  0.1969054907211033  0.609127133951755  1.0000
  H   H31       1.0  0.4181021066850062  0.1647559406040251  0.5295404381625894  1.0000
  H   H32       1.0  0.43507850280224164  0.1206985923004667  0.5481794749023476  1.0000
  C   C51       1.0  0.45431761377565455  0.2351354496545944  0.5278378533808239  1.0000
  C   C52       1.0  0.4223749044247749  0.2326274491210348  0.528949206454363  1.0000
  C   C53       1.0  0.409793942931473  0.2440555658196123  0.5065535118846711  1.0000
  C   C54       1.0  0.426960543781162  0.2526214505549015  0.48293878286502767  1.0000
  C   C55       1.0  0.4574365681881864  0.25086779971334144  0.4812361980832621  1.0000
  C   C56       1.0  0.47171288727561195  0.24400553245601597  0.504371440219258  1.0000
  C   C57       1.0  0.40247599311042725  0.2173324152136037  0.5556338705638009  1.0000
  C   C58       1.0  0.4129880266154527  0.250488844695006  0.5737731031790789  1.0000
  C   C59       1.0  0.3968356008834909  0.27359725585309463  0.569685274323575  1.0000
  C   C60       1.0  0.40573234011655623  0.3038876267456679  0.5825034215648147  1.0000
  C   C61       1.0  0.4314848973906649  0.31234880848097657  0.599647109379299  1.0000
  C   C62       1.0  0.44871309835125434  0.2903318168991462  0.602979136875833  1.0000
  C   C63       1.0  0.43990610200258184  0.26006905903690025  0.5900858158435129  1.0000
  C   C64       1.0  0.3551408307673789  0.18153732427241123  0.5266086603104562  1.0000
  C   C65       1.0  0.3238449047030528  0.16586858816342473  0.5218747431964779  1.0000
  C   C66       1.0  0.3003989403198831  0.16621039111288155  0.5405158116603193  1.0000
  C   C67       1.0  0.3101896224706146  0.18320412617079354  0.564607995839527  1.0000
  C   C68       1.0  0.3418496023142678  0.1993416946767172  0.5694658481225837  1.0000
  C   C69       1.0  0.3650314503948342  0.19950823235378298  0.5502640238117646  1.0000
  C   C70       1.0  0.26402120835363485  0.1493747512670308  0.5323868836032262  1.0000
  C   C71       1.0  0.24917542061410083  0.23410846460507373  0.4879733951433273  1.0000
  C   C72       1.0  0.2611995629784365  0.21157746659088947  0.47505975687017465  1.0000
  C   C73       1.0  0.2664069708188473  0.18554940126697453  0.48914773166344727  1.0000
  C   C74       1.0  0.2584133491589031  0.18027585563039866  0.5163626757586139  1.0000
  C   C75       1.0  0.2464399345842643  0.20338729837995914  0.5292600602391007  1.0000
  C   C76       1.0  0.24162699222552753  0.22965902708724578  0.5150136109673343  1.0000
  C   C77       1.0  0.2379670789805825  0.13358100724921163  0.5551076540262385  1.0000
  C   C78       1.0  0.24511272311074597  0.12054397395632116  0.5790840299327008  1.0000
  C   C79       1.0  0.22257995080005105  0.10897642883953418  0.5988608321590804  1.0000
  C   C80       1.0  0.19124562143172028  0.10670081874566617  0.5938506005697798  1.0000
  C   C81       1.0  0.1833859004286756  0.11743864167152722  0.5693337860571723  1.0000
  C   C82       1.0  0.20631574922390308  0.13040889223047397  0.550290436224847  1.0000
  C   C83       1.0  0.2377079704678771  0.105837184728311  0.49513115908862576  1.0000
  C   C84       1.0  0.23617165332813125  0.07830192938294453  0.4798810381197327  1.0000
  C   C85       1.0  0.25640234025935177  0.05940479907047934  0.4851553938398562  1.0000
  C   C86       1.0  0.275614699800871  0.06675403358577255  0.5073621380698056  1.0000
  C   C87       1.0  0.27559856911507513  0.09318562390622667  0.5233863459144178  1.0000
  C   C88       1.0  0.2594308297648405  0.11550774076973955  0.5159542992178803  1.0000
  H   H33       1.0  0.4656814997885364  0.2284404501826947  0.5454021080805415  1.0000
  H   H34       1.0  0.385490875235083  0.24438756408895076  0.5062995463742646  1.0000
  H   H35       1.0  0.4154260419079431  0.25858876556872357  0.4652099585145667  1.0000
  H   H36       1.0  0.49581225080329366  0.24298150761615245  0.5036034485157885  1.0000
  H   H37       1.0  0.37699844268345983  0.2682755300087602  0.555940660900372  1.0000
  H   H38       1.0  0.3914725759828442  0.32042297523076224  0.5794233278546039  1.0000
  H   H39       1.0  0.4695770970974335  0.29634591184558096  0.6156550634312452  1.0000
  H   H40       1.0  0.45471419784342143  0.2439542877215564  0.5926112488789957  1.0000
  H   H41       1.0  0.37221210247809455  0.17992707838114483  0.5112833655504828  1.0000
  H   H42       1.0  0.3179946692286991  0.1531075111438073  0.5026851092301584  1.0000
  H   H43       1.0  0.2930911186342883  0.18377882707925713  0.5801527168004916  1.0000
  H   H44       1.0  0.3482836019859145  0.21148374889939922  0.588685957950152  1.0000
  H   H45       1.0  0.26760111821550925  0.21499106450554725  0.4538262084761031  1.0000
  H   H46       1.0  0.27766911532535615  0.1696227534569472  0.4786071471195334  1.0000
  H   H47       1.0  0.24155489297168545  0.20119833201418336  0.5509121437943222  1.0000
  H   H48       1.0  0.23337424853975  0.24808084644968795  0.5254485458589191  1.0000
  H   H49       1.0  0.2690537627497316  0.12009963529893763  0.5830519870672929  1.0000
  H   H50       1.0  0.23005303471655414  0.10155180653887548  0.6179671654379865  1.0000
  H   H51       1.0  0.15909043112439092  0.11629804316803836  0.5652622109943343  1.0000
  H   H52       1.0  0.19979259324082307  0.13940670336200772  0.5313060063909358  1.0000
  H   H53       1.0  0.22267756603627908  0.12065898590652534  0.4894301413110193  1.0000
  H   H54       1.0  0.21955592287541087  0.07317888557265029  0.46322293236114576  1.0000
  H   H55       1.0  0.2910370698591399  0.0519484614328565  0.5120107227722872  1.0000
  H   H56       1.0  0.2911750066717719  0.09874054631178825  0.5406275564848982  1.0000
  C   C89       1.0  0.10794002713677181  0.047586995300161174  0.622879874271291  1.0000
  C   C90       1.0  0.08777800266117426  0.06674952650803137  0.6264313279688163  1.0000
  C   C91       1.0  0.057389467308955625  0.05263597095402839  0.6360962394328482  1.0000
  C   C92       1.0  0.04539291595598202  0.01880208926324231  0.6417769399696222  1.0000
  C   C93       1.0  0.06719291968713476  0.001192674881455961  0.6413929441178874  1.0000
  C   C94       1.0  0.09772109279250384  0.015112140329687208  0.6314293692136173  1.0000
  H   H57       1.0  0.09487387477705948  0.09235662990390361  0.6197489874589989  1.0000
  H   H58       1.0  0.042261528555715876  0.06849891513937499  0.6373660669848811  1.0000
  H   H59       1.0  0.07007025473124524  0.47328200120436337  0.6475531315383088  1.0000
  H   H60       1.0  0.11350519648993929  0.9999869680415806  0.6301270340762525  1.0000
  C   C95       1.0  0.018002295643859755  0.45701236603303375  0.610785020803689  1.0000
  C   C96       1.0  0.005576652566890018  0.46739255479196945  0.6340868643145116  1.0000
  C   C97       1.0  0.4745350170339409  0.45053122985018484  0.6489672115002526  1.0000
  C   C98       1.0  0.457601844858175  0.4208045049903098  0.637687079390035  1.0000
  C   C99       1.0  0.46605906283948806  0.4111083059440096  0.6128837917816888  1.0000
  C   C100      1.0  0.0032968563491242177  0.42660502889049134  0.5993829852484762  1.0000
  C   C101      1.0  0.021346518032595335  0.503713540013275  0.6467485688013409  1.0000
  C   C102      1.0  0.49695501699493405  0.02466301499244521  0.6324045967735785  1.0000
  C   C103      1.0  0.466012944538785  0.020063960022120714  0.6413888806697209  1.0000
  C   C104      1.0  0.446284169074557  0.03466978334445875  0.6277885196564289  1.0000
  C   C105      1.0  0.4565445800157775  0.053453554909779794  0.6046939120020981  1.0000
  C   C106      1.0  0.4866381853614031  0.0571084704035968  0.5951691894998106  1.0000
  C   C107      1.0  0.5063321645968416  0.042502944580670755  0.6085013629341133  1.0000
  C   C108      1.0  0.01872001787937206  0.48077388891739953  0.6956420088648114  1.0000
  C   C109      1.0  0.014744378124318136  0.4834147502075346  0.7228488260636452  1.0000
  C   C110      1.0  0.01273913246169072  0.0075268616556083525  0.7394419166515681  1.0000
  C   C111      1.0  0.012395565168304156  0.0343378155088225  0.7234197405310392  1.0000
  C   C112      1.0  0.0111441381298397  0.03210444393740622  0.6957720392061396  1.0000
  C   C113      1.0  0.010841662091959563  0.0030057807239553293  0.6826125623189135  1.0000
  C   C114      1.0  0.0108163736594856  0.010318953301525553  0.7717808688846977  1.0000
  C   C115      1.0  0.46422451279657795  0.4128445831211222  0.807965874807424  1.0000
  C   C116      1.0  0.48687201889833664  0.43596586797487286  0.8223362592482687  1.0000
  C   C117      1.0  0.0016308341036371974  0.4691898007170415  0.805405902462526  1.0000
  C   C118      1.0  0.4956344888106095  0.4748185912906228  0.7850581857687525  1.0000
  C   C119      1.0  0.47109437352663935  0.45201997663849475  0.7715025226852921  1.0000
  C   C120      1.0  0.4562248979951518  0.42118663002559803  0.7823925637715252  1.0000
  C   C121      1.0  0.48921105168833906  0.030670955742849747  0.7816733334460538  1.0000
  C   C122      1.0  0.46194234637017595  0.03242229635410022  0.7687373462079854  1.0000
  C   C123      1.0  0.4459230991085971  0.054174036127948126  0.7769780190896575  1.0000
  C   C124      1.0  0.45633566109618795  0.07412364918065113  0.7992091440086059  1.0000
  C   C125      1.0  0.4810053497768747  0.06959380188658859  0.8143779960141688  1.0000
  C   C126      1.0  0.9935478187777588  0.04660453252762062  0.8080512072189207  1.0000
  C   C127      1.0  0.06054309416289434  0.06104432865539091  0.7821772010187005  1.0000
  C   C128      1.0  0.08927948914749474  0.07407157827973565  0.7947007482678687  1.0000
  C   C129      1.0  0.10851657130620866  0.05450633620974512  0.7993513646944336  1.0000
  C   C130      1.0  0.09835224126554008  0.021914775969739533  0.7912549442226725  1.0000
  C   C131      1.0  0.06891694953261884  0.008629295511123833  0.7800052879737036  1.0000
  C   C132      1.0  0.04806028304117162  0.027168537301109796  0.7777419473449603  1.0000
  H   H61       1.0  0.038962705146582975  0.47246989666171385  0.6005654486649291  1.0000
  H   H62       1.0  0.4661003979174724  0.4572404439770735  0.6680715130550755  1.0000
  H   H63       1.0  0.43782607644554894  0.40498054084957164  0.6488859425369226  1.0000
  H   H64       1.0  0.013734226714791032  0.4183811819411891  0.5819060946843385  1.0000
  H   H65       1.0  0.4573918251657676  0.005293221664942329  0.659351353289756  1.0000
  H   H66       1.0  0.42265355906559954  0.031658800138813246  0.6354785953115395  1.0000
  H   H67       1.0  0.4950528744208922  0.07194896918422125  0.577202653431609  1.0000
  H   H68       1.0  0.5295990135724611  0.045298771842563375  0.6001651990205285  1.0000
  H   H69       1.0  0.02074260708942822  0.45753167082416113  0.6879153621762023  1.0000
  H   H70       1.0  0.014729050722862305  0.4620744234092777  0.734966028496163  1.0000
  H   H71       1.0  0.012457429874565558  0.05771550916737773  0.7325198326999269  1.0000
  H   H72       1.0  0.010200428194320462  0.05363001336663811  0.684187148483434  1.0000
  H   H73       1.0  0.49351878266019217  0.43035322373684703  0.8423426462960557  1.0000
  H   H74       1.0  0.020441574463096208  0.48627722502524967  0.8167022883654096  1.0000
  H   H75       1.0  0.4635217545022696  0.4577655587723319  0.7518516873520742  1.0000
  H   H76       1.0  0.43753980477296706  0.4042912494779254  0.7709153544252321  1.0000
  H   H77       1.0  0.45440419924880177  0.01813405613281056  0.7505290349738768  1.0000
  H   H78       1.0  0.4265754013487858  0.05694176868837465  0.7648587849330565  1.0000
  H   H79       1.0  0.4896837160276489  0.08489999467636856  0.8319524093343026  1.0000
  H   H80       1.0  0.012833846309718093  0.04512146814915727  0.8209648454920733  1.0000
  H   H81       1.0  0.046249642144413274  0.07749102486055823  0.7794181197136436  1.0000
  H   H82       1.0  0.09540364075045224  0.09926234018276035  0.8019214956597479  1.0000
  H   H83       1.0  0.11303786297800857  0.006054603031220381  0.7948267151610304  1.0000
  H   H84       1.0  0.05630688244100324  0.48224775582056356  0.7782519100898567  1.0000
  C   C133      1.0  0.22410492528256082  0.2953532840720679  0.43765165304933024  1.0000
  C   C134      1.0  0.21121318911696418  0.3169855263825469  0.4506932899397278  1.0000
  C   C135      1.0  0.2103759853708098  0.3455367300422297  0.4378406033890727  1.0000
  C   C136      1.0  0.22163629788328723  0.3530341615072936  0.41144444409945674  1.0000
  C   C137      1.0  0.2338838796719924  0.3302870232226014  0.3987766444403776  1.0000
  C   C138      1.0  0.23703444306384297  0.30301868458108794  0.41223478476784187  1.0000
  H   H85       1.0  0.20142417908535354  0.31147146934940095  0.4709312935330056  1.0000
  H   H86       1.0  0.1991458113628872  0.36130132905298884  0.44858436034131177  1.0000
  H   H87       1.0  0.24184262107813043  0.3343067416837655  0.37798804362053834  1.0000
  H   H88       1.0  0.24732514230635078  0.2860420533333573  0.4019197215971691  1.0000
  C   C139      1.0  0.2759865347658909  0.40127963451847914  0.3790689208328286  1.0000
  C   C140      1.0  0.24545104596403314  0.4010187070296007  0.37354669477454844  1.0000
  C   C141      1.0  0.2403533004094443  0.41828378378136577  0.3507954484902873  1.0000
  C   C142      1.0  0.26476109471748616  0.43343678023114346  0.33336325585598126  1.0000
  C   C143      1.0  0.2950278798913078  0.43253464084994897  0.33883265708809684  1.0000
  C   C144      1.0  0.3003054814003748  0.4170372005241581  0.36216700818425146  1.0000
  C   C145      1.0  0.21905593623259415  0.38531569286300704  0.39530239625801583  1.0000
  C   C146      1.0  0.2236589431842313  0.4175196593155495  0.41440060264058903  1.0000
  C   C147      1.0  0.20896692657934188  0.44191730483371333  0.4091546910576312  1.0000
  C   C148      1.0  0.21290580161257702  0.46850660815511924  0.42610739680828974  1.0000
  C   C149      1.0  0.23236692965230077  0.472622724209987  0.44813738104299616  1.0000
  C   C150      1.0  0.24813546193254601  0.4498837545729198  0.45316589814904606  1.0000
  C   C151      1.0  0.2440519886527824  0.4228485907959234  0.43647325308104384  1.0000
  C   C152      1.0  0.17903511443342762  0.351144009659457  0.3580690207083312  1.0000
  C   C153      1.0  0.14804848907717064  0.33697774931034025  0.35004980575173367  1.0000
  C   C154      1.0  0.1229354711273063  0.3390573163379956  0.36612074325026067  1.0000
  C   C155      1.0  0.13024377107415833  0.3584784077067772  0.38920112883600866  1.0000
  C   C156      1.0  0.1605387546190454  0.3728991304906813  0.3969623148340331  1.0000
  C   C157      1.0  0.18562278434317755  0.36954303591152676  0.38197225454779643  1.0000
  C   C158      1.0  0.08648063839133871  0.3240846103685795  0.357721595890095  1.0000
  C   C159      1.0  0.07038838023827777  0.407559083597253  0.31345642328827356  1.0000
  C   C160      1.0  0.07809864539135443  0.3829503426188782  0.29938267056358375  1.0000
  C   C161      1.0  0.08626727018736971  0.3585066486127777  0.3132491874317818  1.0000
  C   C162      1.0  0.08330475177239813  0.3556293000538912  0.34119758392100275  1.0000
  C   C163      1.0  0.07628929245578926  0.3812734714009131  0.3548771821735415  1.0000
  C   C164      1.0  0.07033675536026648  0.4069120826988311  0.34119148874875294  1.0000
  C   C165      1.0  0.06240918720013681  0.31271032507894786  0.3825553593596899  1.0000
  C   C166      1.0  0.07135283520581553  0.2988171417482646  0.40559917391193934  1.0000
  C   C167      1.0  0.05219116850272883  0.29174034309385627  0.42839714985011523  1.0000
  C   C168      1.0  0.023543192609472453  0.2981523299016027  0.42863079811968935  1.0000
  C   C169      1.0  0.012363267011933804  0.3067174451932374  0.4046097242833954  1.0000
  C   C170      1.0  0.03130109913554717  0.31332451808267053  0.3817975262766367  1.0000
  C   C171      1.0  0.053027975719441865  0.28137570618283136  0.32302178027222617  1.0000
  C   C172      1.0  0.04559571394777639  0.2521213913570594  0.30894802754753636  1.0000
  C   C173      1.0  0.0605285556227317  0.22863764794447533  0.3146896798068078  1.0000
  C   C174      1.0  0.08335440610331835  0.2353795946888731  0.334641210304347  1.0000
  C   C175      1.0  0.09104876042602031  0.26517959542687414  0.3484813147594628  1.0000
  C   C176      1.0  0.07725077320384771  0.289549220933979  0.34204684458780227  1.0000
  H   H89       1.0  0.281728056472118  0.38996197991282294  0.3971695506905249  1.0000
  H   H90       1.0  0.21732926589647708  0.4207859828494071  0.346197656889887  1.0000
  H   H91       1.0  0.2597299617454312  0.4451226548644724  0.31516510324228886  1.0000
  H   H92       1.0  0.3240688949601818  0.4171706896363013  0.36718739839396825  1.0000
  H   H93       1.0  0.1933025115988103  0.4393298295183436  0.39194192462431626  1.0000
  H   H94       1.0  0.19977718618176823  0.4858491820556487  0.42250311828459985  1.0000
  H   H95       1.0  0.2636071859188188  0.45276645046679426  0.4705351073367714  1.0000
  H   H96       1.0  0.2571939996084714  0.40577433228031495  0.4414895798425942  1.0000
  H   H97       1.0  0.19810534407873764  0.34811713554918905  0.34552109277016396  1.0000
  H   H98       1.0  0.1432132997711  0.323803235548117  0.3310206779879911  1.0000
  H   H99       1.0  0.11157984192456503  0.36229038441100103  0.4018445478060888  1.0000
  H   H100      1.0  0.16360192538120852  0.3853565752872242  0.4163287087955956  1.0000
  H   H101      1.0  0.07910373765914157  0.3837899932532272  0.27749287529062167  1.0000
  H   H102      1.0  0.09231703956308203  0.3394557010037477  0.3019263891158158  1.0000
  H   H103      1.0  0.07399476825134198  0.38081427063596507  0.37672431124075534  1.0000
  H   H104      1.0  0.06454370807406344  0.42619685218737313  0.35246552568672085  1.0000
  H   H105      1.0  0.09413573145770025  0.29419970729142686  0.4060664704510874  1.0000
  H   H106      1.0  0.06033415942211826  0.2820487801524018  0.4463555590219838  1.0000
  H   H107      1.0  0.48840857486146305  0.31072645143398964  0.399174862360695  1.0000
  H   H108      1.0  0.022344235452704232  0.3208804006813143  0.36330477367087277  1.0000
  H   H109      1.0  0.03940975861547133  0.29831611295208965  0.31927934451087514  1.0000
  H   H110      1.0  0.026524634087409175  0.24749848609532046  0.2944130734559482  1.0000
  H   H111      1.0  0.0953654673806002  0.21728394171343865  0.3395376653449855  1.0000
  H   H112      1.0  0.10865309162438327  0.2692740266462611  0.36412762192459003  1.0000
  C   C177      1.0  0.2395552918466833  0.3189827647991877  0.9774990274862595  1.0000
  C   C178      1.0  0.24490578899362275  0.32311687059097405  0.0049043787645631255  1.0000
  C   C179      1.0  0.235404230166036  0.34671489630927965  0.018723068847841435  1.0000
  C   C180      1.0  0.2231937152244684  0.36905071637586007  0.005569910622514135  1.0000
  C   C181      1.0  0.21654993843851275  0.36324619334868036  0.9781918453986485  1.0000
  C   C182      1.0  0.22468873136717168  0.33872562023520253  0.9644817712848609  1.0000
  H   H113      1.0  0.25606461414919335  0.30793832520486203  0.016334574015569838  1.0000
  H   H114      1.0  0.23923919794068232  0.34897338650019455  0.04031062484617886  1.0000
  H   H115      1.0  0.2049754164065905  0.3782427851337353  0.9669015546680146  1.0000
  H   H116      1.0  0.21998833276475688  0.33558188283862445  0.9429983208285493  1.0000
  C   C183      1.0  0.24256613445080846  0.44003781750497845  0.9818489487485029  1.0000
  C   C184      1.0  0.22180198102427617  0.432444979819368  0.0037249222997534043  1.0000
  C   C185      1.0  0.20532886670322567  0.4548700129996973  0.00991587002279532  1.0000
  C   C186      1.0  0.2058748709634624  0.48069991467198653  0.9927836877645678  1.0000
  C   C187      1.0  0.2242739653334348  0.4855632824863938  0.9696443821804055  1.0000
  C   C188      1.0  0.24339825385305913  0.4657810757345964  0.9646524361078541  1.0000
  C   C189      1.0  0.21835949500198115  0.39999207441697376  0.021895077755578515  1.0000
  C   C190      1.0  0.24578590645296544  0.41602396080888676  0.04328222449034392  1.0000
  C   C191      1.0  0.2406588698337127  0.43224569957343917  0.06647171365936257  1.0000
  C   C192      1.0  0.26554921761463324  0.4537701414227059  0.08045627369679761  1.0000
  C   C193      1.0  0.2965280167856781  0.4589566675919237  0.0717606977928854  1.0000
  C   C194      1.0  0.30184446507878104  0.440237096849847  0.05058342815591997  1.0000
  C   C195      1.0  0.2771267036609813  0.41915930304747634  0.03680894838869323  1.0000
  C   C196      1.0  0.15727892221337722  0.38327889045523  0.0177809787076781  1.0000
  C   C197      1.0  0.12689028223310078  0.3705752930415123  0.026652969213739136  1.0000
  C   C198      1.0  0.11945686147948666  0.3525212898892624  0.05036745588587024  1.0000
  C   C199      1.0  0.14479534096308402  0.35043338065689966  0.06619925945979842  1.0000
  C   C200      1.0  0.17594720832552313  0.36554798008341616  0.058021976369523894  1.0000
  C   C201      1.0  0.18300057849163098  0.38291157070701376  0.03345802585818494  1.0000
  C   C202      1.0  0.08237985763231324  0.3369486483667979  0.05804838878260618  1.0000
  C   C203      1.0  0.06800744507864209  0.424720520471491  0.09642135837058717  1.0000
  C   C204      1.0  0.06391682802410086  0.41951037243992306  0.06898841028128741  1.0000
  C   C205      1.0  0.06824917716580302  0.3920470520214843  0.0572889303202864  1.0000
  C   C206      1.0  0.07739799655147311  0.3687748213813191  0.07232450122598795  1.0000
  C   C207      1.0  0.08316097963590373  0.3749018678882909  0.09983648338212622  1.0000
  C   C208      1.0  0.0790747896461449  0.4029883883238798  0.11172532002768636  1.0000
  C   C209      1.0  0.0730782014578017  0.3036987739040779  0.07596758567966794  1.0000
  C   C210      1.0  0.08706608655009528  0.27901038391458827  0.07087100581682913  1.0000
  C   C211      1.0  0.07603394940324736  0.24808674165996725  0.08267471322330097  1.0000
  C   C212      1.0  0.05134386551300007  0.2408161712736131  0.10097038859298943  1.0000
  C   C213      1.0  0.038406131404176536  0.2656410746438716  0.10784127309773262  1.0000
  C   C214      1.0  0.04803571102768967  0.29602287178031167  0.09465721234909906  1.0000
  C   C215      1.0  0.026372602903750535  0.32113403595025247  0.03431216266278428  1.0000
  C   C216      1.0  0.0070222986433989085  0.31343726430254215  0.011981950560295586  1.0000
  C   C217      1.0  0.018467039659946036  0.3046473207860417  0.9881066589249206  1.0000
  C   C218      1.0  0.048915866485277654  0.30263748309109073  0.9871395582612924  1.0000
  C   C219      1.0  0.06847210001121218  0.31170982756629323  0.009215108069240713  1.0000
  C   C220      1.0  0.058272102854770386  0.32279658700353875  0.03302181469751064  1.0000
  H   H117      1.0  0.2580827833756071  0.42515132498192937  0.9777956592024143  1.0000
  H   H118      1.0  0.1909575407721167  0.45115321988376755  0.02803941772815062  1.0000
  H   H119      1.0  0.19188279886287393  0.49708040822124827  0.9974810338450475  1.0000
  H   H120      1.0  0.25974231228153977  0.47047551552449235  0.9476814448404463  1.0000
  H   H121      1.0  0.21674327177312114  0.4308370350619213  0.0724809439803984  1.0000
  H   H122      1.0  0.2604835461073006  0.4682385513455953  0.097036564422996  1.0000
  H   H123      1.0  0.32550541297264723  0.4432931933923064  0.043340738143941585  1.0000
  H   H124      1.0  0.2830331019195665  0.4079600336232166  0.01869017523493358  1.0000
  H   H125      1.0  0.16099337500576935  0.3947444768128477  0.9979158227988635  1.0000
  H   H126      1.0  0.10845834819849713  0.3742106510351071  0.01387188061977786  1.0000
  H   H127      1.0  0.1409089002669964  0.3378881039245496  0.0856040530065344  1.0000
  H   H128      1.0  0.19477187281957034  0.3631296496641916  0.07105589270840511  1.0000
  H   H129      1.0  0.055747736030359686  0.4362144944407963  0.0563417405526741  1.0000
  H   H130      1.0  0.06402651920429388  0.38884129660280653  0.03577175324419285  1.0000
  H   H131      1.0  0.0912024779410302  0.3577341477701672  0.11214873132663616  1.0000
  H   H132      1.0  0.08355352302362494  0.40711900531646644  0.133181342208874  1.0000
  H   H133      1.0  0.10541124170128457  0.2830923020105374  0.05557151395271309  1.0000
  H   H134      1.0  0.08685488527310567  0.2291874817902073  0.07704561847824169  1.0000
  H   H135      1.0  0.019564069814135495  0.26088932683383753  0.12278622910932109  1.0000
  H   H136      1.0  0.03514093485453429  0.31340736670400166  0.09940392932480178  1.0000
  H   H137      1.0  0.016847588193465365  0.32819096433873696  0.05280268037205664  1.0000
  H   H138      1.0  0.489787591389202  0.31904859781288586  0.007479060791823979  1.0000
  H   H139      1.0  0.05834099798284273  0.29627772497990834  0.9683156346299583  1.0000
  H   H140      1.0  0.0924342956099052  0.31045056492076495  0.007580321920133281  1.0000
  C   C221      1.0  0.3747522524706405  0.4936702860658732  0.31061810474396984  1.0000
  C   C222      1.0  0.38016678460080017  0.011755154660051054  0.28951865013939304  1.0000
  C   C223      1.0  0.4096462680884331  0.023793615637815273  0.27735471805296047  1.0000
  C   C224      1.0  0.4366624425623502  0.017125076304519676  0.28741378398914347  1.0000
  C   C225      1.0  0.42769286663073613  0.49125573015595736  0.3067781462266227  1.0000
  C   C226      1.0  0.39760557578400474  0.4794179184815871  0.3174934590416962  1.0000
  H   H141      1.0  0.36015856750578024  0.017335647743263554  0.2803068131459263  1.0000
  H   H142      1.0  0.41108177593343537  0.039247125693488795  0.25963198887474925  1.0000
  H   H143      1.0  0.44432880311380674  0.4793058931964105  0.3141004798226646  1.0000
  H   H144      1.0  0.3928258843162451  0.45994309761605967  0.3326887234603414  1.0000
  C   C227      1.0  0.007655578817437231  0.5127822972650788  0.30090443190193983  1.0000
  C   C228      1.0  0.4894882099191279  0.003045778203348341  0.27775903114552775  1.0000
  C   C229      1.0  0.9924143611721611  0.48777742449082884  0.25818133787930697  1.0000
  C   C230      1.0  0.005969757632034112  0.46348763882481686  0.26453250736355416  1.0000
  C   C231      1.0  0.0197416563055806  0.4634259049576245  0.28919560601015587  1.0000
  C   C232      1.0  0.02045987795466536  0.487972303483508  0.30745471034634575  1.0000
  C   C233      1.0  0.47117490268597695  0.030533541149167624  0.27218194853699973  1.0000
  C   C234      1.0  0.9862717137076897  0.07214988490817412  0.2794616159272933  1.0000
  C   C235      1.0  0.018419682970616892  0.08347145570238947  0.28539628197447375  1.0000
  C   C236      1.0  0.031837353542998464  0.1132391769138291  0.2984013478313728  1.0000
  C   C237      1.0  0.014231288772308436  0.13429932711107398  0.3035720856232503  1.0000
  C   C238      1.0  0.9826466126520262  0.12453124954661833  0.29674346097943877  1.0000
  C   C239      1.0  0.4735600775982876  0.08992298934070155  0.289132622563575  1.0000
  C   C240      1.0  0.44511724475288467  0.01478611411966512  0.22470258843547286  1.0000
  C   C241      1.0  0.44342683296915414  0.016630503599694424  0.1971247784190372  1.0000
  C   C242      1.0  0.4649435334967629  0.04082310858655498  0.18224504075052114  1.0000
  C   C243      1.0  0.4895739462494567  0.06253680549056084  0.19640798616246574  1.0000
  C   C244      1.0  0.49119112332269105  0.06138805111121744  0.2244628449936491  1.0000
  C   C245      1.0  0.46940631373650604  0.03648078546825503  0.23950166665788383  1.0000
  C   C246      1.0  0.46050638789820414  0.042597811225819154  0.14997110368805575  1.0000
  C   C247      1.0  0.025935125307055634  0.4773399058166656  0.14063959814608548  1.0000
  C   C248      1.0  0.49059418712412756  0.452589128291136  0.1431818944914593  1.0000
  C   C249      1.0  0.47352108022551015  0.4744974073940885  0.14792739243271208  1.0000
  C   C250      1.0  0.4813452201825821  0.018933341411603112  0.14158353715516458  1.0000
  C   C251      1.0  0.018010351246638794  0.03142072072790405  0.1412649628189106  1.0000
  C   C252      1.0  0.03679710809235981  0.010785475951503289  0.13957842865740272  1.0000
  C   C253      1.0  0.47246783580387275  0.07890755938751523  0.1359446901345057  1.0000
  C   C254      1.0  0.4720423858725915  0.10742534420859677  0.1496190059044281  1.0000
  C   C255      1.0  0.4850177306325629  0.13862625474930482  0.13833135641510236  1.0000
  C   C256      1.0  0.495960075743203  0.14230051940644844  0.1120249993299661  1.0000
  C   C257      1.0  0.494040282109087  0.11414013949647973  0.09704956745712881  1.0000
  C   C258      1.0  0.4823482469183723  0.08310700639219659  0.10888781417301596  1.0000
  C   C259      1.0  0.41580738059083444  0.01134046565160946  0.11615691659807663  1.0000
  C   C260      1.0  0.38489822589239636  0.9958062930383876  0.10919501085440374  1.0000
  C   C261      1.0  0.3737576059298232  0.4953123466814954  0.11679711285670948  1.0000
  C   C262      1.0  0.36744169546915406  0.020302008255046914  0.14691721921851894  1.0000
  C   C263      1.0  0.39866883095345046  0.035509820876345806  0.15405161833685999  1.0000
  C   C264      1.0  0.42368416308793405  0.029553292567986493  0.13988907926973201  1.0000
  H   H145      1.0  0.00047684772577155654  0.02313926708591523  0.3143503818849046  1.0000
  H   H146      1.0  0.4796631461707009  0.4756322760047574  0.24181376866462512  1.0000
  H   H147      1.0  0.004115204412275477  0.4436246805860017  0.25024136016195636  1.0000
  H   H148      1.0  0.030656973854451507  0.487694439537881  0.32726808360622384  1.0000
  H   H149      1.0  0.03404119192064913  0.06908192062162599  0.2802864959050938  1.0000
  H   H150      1.0  0.05659170885084238  0.1202595432548382  0.30396014492315154  1.0000
  H   H151      1.0  0.9684142901469547  0.14094023958368698  0.30036399329579466  1.0000
  H   H152      1.0  0.44860691847092654  0.08454042504241915  0.28514434818815043  1.0000
  H   H153      1.0  0.42716108531605634  0.4912448936279506  0.23751667222854617  1.0000
  H   H154      1.0  0.4244878646771997  0.4922852585992578  0.18895806029399562  1.0000
  H   H155      1.0  0.006079551760501096  0.08341931739972798  0.1804969453492907  1.0000
  H   H156      1.0  0.009896259645458328  0.08222295809458972  0.22888997177105622  1.0000
  H   H157      1.0  0.47812483048456006  0.4263327438991201  0.14347608813871426  1.0000
  H   H158      1.0  0.44853890774600835  0.46457819649963755  0.15252559037792907  1.0000
  H   H159      1.0  0.029354346356915126  0.05748455319598058  0.1450086176147116  1.0000
  H   H160      1.0  0.06231699067249998  0.02121369723903651  0.14021456146786906  1.0000
  H   H161      1.0  0.4623960140452122  0.1055071162657962  0.16994762439181893  1.0000
  H   H162      1.0  0.48543704975349566  0.16042149467941536  0.14987479996650957  1.0000
  H   H163      1.0  0.5015724082070013  0.11609305344271374  0.07599501395479184  1.0000
  H   H164      1.0  0.48127112880861794  0.061641191390181004  0.09649531312721756  1.0000
  H   H165      1.0  0.4342418149200749  0.008204753797514666  0.10286395543858073  1.0000
  H   H166      1.0  0.3962831765731154  0.47163073819360735  0.08826926865894497  1.0000
  H   H167      1.0  0.34871625040892024  0.02431469133825823  0.15935563722859886  1.0000
  H   H168      1.0  0.4036397330386003  0.051255908982059624  0.1717788173080544  1.0000
  C   C265      1.0  0.5082712673919731  0.17755349976793838  0.09948316656404863  1.0000
  C   C266      1.0  0.03969503697443469  0.20528301191301715  0.11345797432588406  1.0000
  H   H169      1.0  0.016684874061751113  0.17805517155171266  0.07750742936236499  1.0000
  H   H170      1.0  0.4916321128876027  0.1918379273286948  0.10430851126177322  1.0000
  H   H171      1.0  0.033643238251820584  0.20732553789843847  0.13510497857089745  1.0000
  H   H172      1.0  0.05950793154834866  0.19427970120563204  0.11417009361706404  1.0000
  C   C267      1.0  0.32628023324200217  0.48515062546382154  0.08324542451828659  1.0000
  C   C268      1.0  0.3403372480378189  0.47380934655240553  0.10857533500901173  1.0000
  H   H173      1.0  0.33033477487245866  0.9936517700510441  0.07619838953552542  1.0000
  H   H174      1.0  0.30344422741757354  0.007731040710611514  0.0951033789577813  1.0000
  H   H175      1.0  0.34037543506838236  0.4476332971305675  0.10589630363283503  1.0000
  H   H176      1.0  0.3234654719460455  0.4728284102789074  0.12553880889731153  1.0000
  C   C269      1.0  0.06143179493575273  0.4557812266991292  0.10791807226807956  1.0000
  C   C270      1.0  0.04613228445222706  0.45335917194424297  0.1364355546730195  1.0000
  H   H177      1.0  0.08411252612715127  0.47607070861282896  0.10803327102359997  1.0000
  H   H178      1.0  0.04634109460202658  0.4641207263682999  0.09337316272848349  1.0000
  H   H179      1.0  0.0315001000377754  0.42744517244228686  0.1403443886367889  1.0000
  H   H180      1.0  0.06479596942425984  0.4578712474092793  0.1520639826662141  1.0000
  C   C271      1.0  0.3430151180070863  0.48304862014468525  0.32595965329660925  1.0000
  C   C272      1.0  0.3230442680055776  0.446886944633407  0.31942766036895254  1.0000
  H   H181      1.0  0.3476395658497473  0.4858871779414442  0.3479794789108995  1.0000
  H   H182      1.0  0.33036155883038487  0.9996543497813066  0.3237775816311961  1.0000
  H   H183      1.0  0.31487073982889213  0.4453435844278667  0.29803970094455384  1.0000
  H   H184      1.0  0.3378154530648949  0.4298590676557982  0.31986041759868533  1.0000
  C   C273      1.0  0.050181714827757615  0.19533039458604629  0.29977072986348496  1.0000
  C   C274      1.0  0.03045088583401732  0.16689221000793086  0.3182187845394173  1.0000
  H   H185      1.0  0.07086042316744107  0.18903162774032561  0.29131266250490495  1.0000
  H   H186      1.0  0.035498181238603314  0.1971378142731944  0.28197485861827665  1.0000
  H   H187      1.0  0.012351504408191086  0.17538346315860526  0.3291697773481481  1.0000
  H   H188      1.0  0.04542722741000287  0.16176833318834238  0.3346188613394312  1.0000
  C   C275      1.0  0.027945143958754397  0.4331210103732251  0.2989803891950997  1.0000
  C   C276      1.0  0.06375250703203068  0.43750121814105275  0.2995045740085789  1.0000
  H   H189      1.0  0.01772452536742131  0.4268920324219135  0.3196491182940271  1.0000
  H   H190      1.0  0.015595808559008682  0.4110311380840959  0.28670471228408834  1.0000
  H   H191      1.0  0.07401198100481642  0.44133166461507384  0.27881755939290226  1.0000
  H   H192      1.0  0.07617000792642109  0.46050699415493834  0.3107582937057143  1.0000
  C   C277      1.0  0.2609741180992208  0.031286181118698374  0.46673781502517253  1.0000
  C   C278      1.0  0.23822374375589317  0.9967263193126366  0.47300568382200636  1.0000
  H   H193      1.0  0.2587205639797718  0.03754531930053222  0.44521982525944565  1.0000
  H   H194      1.0  0.28553326941186524  0.029795651323416675  0.4678166605133796  1.0000
  H   H195      1.0  0.21390029256386925  0.9987721965728272  0.4750089637680933  1.0000
  H   H196      1.0  0.2433852966276594  0.9889725428620358  0.493524065338773  1.0000
  C   C279      1.0  0.47307481424234216  0.2527992085720249  0.45299116987788635  1.0000
  C   C280      1.0  0.003387866159307679  0.29283373840548527  0.4546226443167381  1.0000
  H   H197      1.0  0.48598351471787665  0.23411736131251018  0.45165023198293974  1.0000
  H   H198      1.0  0.45546243820735227  0.2468010368701244  0.4364569992883778  1.0000
  H   H199      1.0  0.48411599093566854  0.30580859318049425  0.4497891727226805  1.0000
  H   H200      1.0  0.018902054577681654  0.30117075591155246  0.472422579010113  1.0000
  C   C281      1.0  0.22288359740551963  0.26238122796351165  0.45091068441663584  1.0000
  C   C282      1.0  0.2471908018657377  0.26647818178475546  0.47411703689554546  1.0000
  H   H201      1.0  0.22650574528727033  0.24488620847324888  0.435404566213253  1.0000
  H   H202      1.0  0.19872393004312972  0.2505078407114625  0.459088373851727  1.0000
  H   H203      1.0  0.24217513312536385  0.2836210844862148  0.48932245993460693  1.0000
  H   H204      1.0  0.2710592741058838  0.28027902456604314  0.46631724813993924  1.0000
  C   C283      1.0  0.4358261629064546  0.07213588676748536  0.5906912696203221  1.0000
  C   C284      1.0  0.4445486525345823  0.10818668006056104  0.6017722927703811  1.0000
  H   H205      1.0  0.4396411380812138  0.07189375315623224  0.5684723350458732  1.0000
  H   H206      1.0  0.41018538618744244  0.05956441662336662  0.5937429191933674  1.0000
  H   H207      1.0  0.4706423598190646  0.1187594824524493  0.6005105921146813  1.0000
  H   H208      1.0  0.439848507249743  0.10662590465585674  0.6238835459684177  1.0000
  C   C285      1.0  0.13945710259889532  0.06007360301365838  0.6063680526466981  1.0000
  C   C286      1.0  0.1638582751620486  0.09339673800211173  0.6145498055299559  1.0000
  H   H209      1.0  0.1516412481497123  0.04066119843293664  0.6059332636928821  1.0000
  H   H210      1.0  0.1325276650768129  0.0611070729723455  0.5849069511553023  1.0000
  H   H211      1.0  0.17309042785579232  0.09072199432884422  0.634919871188645  1.0000
  H   H212      1.0  0.15122529194047257  0.11233686299027332  0.6167786068492838  1.0000
  C   C287      1.0  0.44085766348540634  0.34508095206441175  0.6163397544473013  1.0000
  C   C288      1.0  0.44650568437093957  0.37756605455132086  0.5995780307604685  1.0000
  H   H213      1.0  0.46270232765245645  0.3471689196254171  0.6280201362019197  1.0000
  H   H214      1.0  0.4223779614884196  0.34373268980131105  0.6317767940318535  1.0000
  H   H215      1.0  0.4231636928532349  0.3798001436970836  0.5935113026478765  1.0000
  H   H216      1.0  0.45766970490559533  0.3739879488011777  0.5799901788738314  1.0000
  C   C289      1.0  0.47368192376948626  0.26108043425548577  0.9604142596701895  1.0000
  C   C290      1.0  0.5012738528355675  0.29324367774646787  0.959130210049574  1.0000
  H   H217      1.0  0.45822410204410124  0.26081237184079276  0.9782020040190648  1.0000
  H   H218      1.0  0.48321732835441655  0.24004246825429326  0.9641729492242065  1.0000
  H   H219      1.0  0.014920773590223984  0.30402884247802286  0.9439410408031784  1.0000
  H   H220      1.0  0.4922838707157035  0.314723993979594  0.9557392625546255  1.0000
  C   C291      1.0  0.23826296388700946  0.039642636412006896  0.9532625908971408  1.0000
  C   C292      1.0  0.21890847853755363  0.005341722265628692  0.9439511994235947  1.0000
  H   H221      1.0  0.2629808339684199  0.04077113425359549  0.9580005714592855  1.0000
  H   H222      1.0  0.2288443442703209  0.04509038155431429  0.9729946951936886  1.0000
  H   H223      1.0  0.1941148045081607  0.004981891709263462  0.9399365126350878  1.0000
  H   H224      1.0  0.22802145912171962  0.9988315780283371  0.9244425847762046  1.0000
  C   C293      1.0  0.22063603979254096  0.2636645997494337  0.9530797357296481  1.0000
  C   C294      1.0  0.24916560380090583  0.29354300166098635  0.9602151507100307  1.0000
  H   H225      1.0  0.20216407314231102  0.27194161827882957  0.9427585773867255  1.0000
  H   H226      1.0  0.20863000029207596  0.25179744360699674  0.9719199131536482  1.0000
  H   H227      1.0  0.2680836881824103  0.2852878784765731  0.9699796166541421  1.0000
  H   H228      1.0  0.2603855322605774  0.3059969779569421  0.9413140215635332  1.0000
  C   C295      1.0  0.4456707925058501  0.1055106195937371  0.8039186804335852  1.0000
  C   C296      1.0  0.4111259378536189  0.09868157760062453  0.8135876553457835  1.0000
  H   H229      1.0  0.4621162007872398  0.12267454453418067  0.8182585890131809  1.0000
  H   H230      1.0  0.4487968053869182  0.1203611260784989  0.784901743014342  1.0000
  H   H231      1.0  0.40548430680642195  0.07899762190530754  0.8294290080229031  1.0000
  H   H232      1.0  0.3947706990148873  0.08799297128215698  0.7967426309715374  1.0000
  C   C297      1.0  0.13968045046006838  0.06803058094633291  0.8150748773747245  1.0000
  C   C298      1.0  0.16200544872694286  0.10113244153517721  0.8035895411320982  1.0000
  H   H233      1.0  0.13326083205508651  0.07184391888379972  0.8362881085279633  1.0000
  H   H234      1.0  0.15270467298905682  0.04935578178330006  0.8163934663047552  1.0000
  H   H235      1.0  0.14865368795089148  0.11851425062973298  0.7978621109414096  1.0000
  H   H236      1.0  0.17284824869515614  0.09652170013465669  0.7842414326872851  1.0000
  C   C299      1.0  0.44769270548050333  0.3798313686749147  0.822297656490687  1.0000
  C   C300      1.0  0.4346119836335282  0.34914073031054077  0.803997917672832  1.0000
  H   H237      1.0  0.4647656449901872  0.37390954533468396  0.8363775043876265  1.0000
  H   H238      1.0  0.42872995323166113  0.3836363929456647  0.8354896409632452  1.0000
  H   H239      1.0  0.4531822135900504  0.34807105134465227  0.7890992849703417  1.0000
  H   H240      1.0  0.4148385505286069  0.35151376823670405  0.7911167869850114  1.0000
  C   C301      1.0  0.4071060562292604  0.6294053082326818  0.8256032715741386  1.0000
  C   C302      1.0  0.40897830040085476  0.6332675918142845  0.8532225287618727  1.0000
  C   C303      1.0  0.40215223475486983  0.6598926244915353  0.8650999877525666  1.0000
  C   C304      1.0  0.39703725708265614  0.6855169572381326  0.8498620571281731  1.0000
  C   C305      1.0  0.39511677463281863  0.6810263175364342  0.8221046427027779  1.0000
  C   C306      1.0  0.40096788326109195  0.6539295944954812  0.8100687092335904  1.0000
  H   H241      1.0  0.4144105224760874  0.6146300788907775  0.8657582663555404  1.0000
  H   H242      1.0  0.4018373523024588  0.6608075238733826  0.8870669885406923  1.0000
  H   H243      1.0  0.3897703825580693  0.699409164534788  0.8091950678777918  1.0000
  H   H244      1.0  0.40067348510219314  0.6524379420784259  0.788128120858547  1.0000
  C   C307      1.0  0.43053377629927975  0.7588281882118155  0.8323404686342039  1.0000
  C   C308      1.0  0.4042291853032335  0.7521702544729039  0.8492769205921964  1.0000
  C   C309      1.0  0.390326599658595  0.7772885296031661  0.8523427922338244  1.0000
  C   C310      1.0  0.4016765377978497  0.8071076593140619  0.8387261774278664  1.0000
  C   C311      1.0  0.42718211768401765  0.8127903325520192  0.8213529047919745  1.0000
  C   C312      1.0  0.44115504808575146  0.7879593168740328  0.8178949104022788  1.0000
  C   C313      1.0  0.39282949438334586  0.7172472125480636  0.8652320498179781  1.0000
  C   C314      1.0  0.4151814180395265  0.7276683223067726  0.8909678987805371  1.0000
  C   C315      1.0  0.4054032491414325  0.741401541688055  0.9135911464475531  1.0000
  C   C316      1.0  0.42381819861148207  0.7489202421894114  0.9363627099726468  1.0000
  C   C317      1.0  0.4536353991132359  0.7452311154376182  0.9365028989343912  1.0000
  C   C318      1.0  0.4647736908212487  0.7336138330462311  0.913686637479466  1.0000
  C   C319      1.0  0.4459716670392337  0.7257118815502753  0.8910451042957006  1.0000
  C   C320      1.0  0.333929104202076  0.7066892309680456  0.853305829449286  1.0000
  C   C321      1.0  0.3022243319462654  0.6951665897900449  0.8593420817006291  1.0000
  C   C322      1.0  0.291153694662312  0.6768978156841531  0.8826479886596181  1.0000
  C   C323      1.0  0.3137418385445937  0.67333525615162  0.9007364281728147  1.0000
  C   C324      1.0  0.3453577360586241  0.6849711779556583  0.8949927441894601  1.0000
  C   C325      1.0  0.3560989214792118  0.7028898062784025  0.871597441370808  1.0000
  C   C326      1.0  0.2540130422432945  0.6606625830611861  0.8893465829621016  1.0000
  C   C327      1.0  0.23732859568292577  0.7406803551157515  0.9384675761228963  1.0000
  C   C328      1.0  0.22876769617997578  0.7371111420928625  0.9116000568459657  1.0000
  C   C329      1.0  0.23543343219930937  0.7130317997387293  0.8961589538132471  1.0000
  C   C330      1.0  0.24848029653435377  0.6899891590452695  0.9075000376459623  1.0000
  C   C331      1.0  0.2570449810391329  0.6941217065134943  0.9346154272610497  1.0000
  C   C332      1.0  0.2517554653564608  0.7192239852282921  0.9496806613383668  1.0000
  C   C333      1.0  0.24731547707794474  0.6254973251914662  0.9049217797843149  1.0000
  C   C334      1.0  0.26448989514890564  0.6034095445373315  0.8996372654437752  1.0000
  C   C335      1.0  0.2649520182582959  0.5790010899842635  0.9181990966683697  1.0000
  C   C336      1.0  0.2457009858972935  0.5739883390547541  0.94071872640714  1.0000
  C   C337      1.0  0.22432041851118678  0.5916264313152165  0.943382316680284  1.0000
  C   C338      1.0  0.22502072172933701  0.6167776139969158  0.925637238537157  1.0000
  C   C339      1.0  0.19696831053743669  0.643536361495773  0.8688342966175846  1.0000
  C   C340      1.0  0.17574342153732428  0.6283683525265686  0.8491306364582022  1.0000
  C   C341      1.0  0.1861050561650143  0.6175092367626245  0.8256093667463884  1.0000
  C   C342      1.0  0.2179304545915441  0.622516478949308  0.8218202013311225  1.0000
  C   C343      1.0  0.23908520713352382  0.6383645077993839  0.841121580122021  1.0000
  C   C344      1.0  0.22932112655445475  0.6490275312258382  0.865256430506977  1.0000
  H   H245      1.0  0.4432199177856208  0.7407699499689268  0.8296992273259757  1.0000
  H   H246      1.0  0.3703775107835743  0.7737024541406752  0.8659309629026168  1.0000
  H   H247      1.0  0.38990844185915413  0.8259063255133622  0.8414446242512582  1.0000
  H   H248      1.0  0.46094073862742246  0.7911886042861416  0.8039918225005822  1.0000
  H   H249      1.0  0.38273924600170484  0.7461497493450102  0.9140787602275338  1.0000
  H   H250      1.0  0.4145397105351423  0.7582273308435967  0.9539716626021959  1.0000
  H   H251      1.0  0.488130288820757  0.7304330147760861  0.9134814333470576  1.0000
  H   H252      1.0  0.4554426456358568  0.7168052302430822  0.8733650413232377  1.0000
  H   H253      1.0  0.34113380582399166  0.7195041906503676  0.8342462258242946  1.0000
  H   H254      1.0  0.2855619320698923  0.7000521041797241  0.8452114407016083  1.0000
  H   H255      1.0  0.3065922565208542  0.6607365284090844  0.9198000952459727  1.0000
  H   H256      1.0  0.36189242643215974  0.6809089066272415  0.9096699189668759  1.0000
  H   H257      1.0  0.21724332669543236  0.7535846253246513  0.9022500626148379  1.0000
  H   H258      1.0  0.22908815864525425  0.7123526628489903  0.8749822936935067  1.0000
  H   H259      1.0  0.26790533431506275  0.6773312027515879  0.944339258723496  1.0000
  H   H260      1.0  0.2575229078719901  0.720871850421024  0.9710381449015165  1.0000
  H   H261      1.0  0.28032099772130803  0.6069714710337588  0.8824123086659609  1.0000
  H   H262      1.0  0.2802397609395709  0.5636004225629149  0.9147390705545908  1.0000
  H   H263      1.0  0.20728358567201788  0.5863498950402944  0.9597945838247975  1.0000
  H   H264      1.0  0.20881003082808672  0.6309863980938172  0.9294528163655051  1.0000
  H   H265      1.0  0.18807073641405012  0.6503133470569592  0.8877557430049148  1.0000
  H   H266      1.0  0.15070151486034875  0.623940275588862  0.8529137067012182  1.0000
  H   H267      1.0  0.22658364951056142  0.613282793331623  0.8038455383665881  1.0000
  H   H268      1.0  0.2636807741026984  0.6403995287927451  0.8378687898647338  1.0000
  C   C345      1.0  0.4395690369130751  0.6456533191360384  0.599269208699814  1.0000
  C   C346      1.0  0.4242754439801307  0.6649611335045194  0.6131093131549299  1.0000
  C   C347      1.0  0.4129887954817384  0.6873287994343437  0.5993972073170589  1.0000
  C   C348      1.0  0.4172328894631185  0.6915206746186812  0.5715463335838342  1.0000
  C   C349      1.0  0.4297896391092559  0.6694062071695693  0.5578220374014637  1.0000
  C   C350      1.0  0.4423662332476875  0.6480927189721791  0.5714549060000879  1.0000
  H   H269      1.0  0.4219110391063702  0.6633312403167624  0.6349503470498938  1.0000
  H   H270      1.0  0.402415695788427  0.7032851540532533  0.610728132529358  1.0000
  H   H271      1.0  0.43236689960567365  0.6700046818758759  0.5359525593693343  1.0000
  H   H272      1.0  0.4535804023861174  0.6327830808979988  0.5599959821705439  1.0000
  C   C351      1.0  0.46104086828364343  0.7364179162601417  0.5281974685435595  1.0000
  C   C352      1.0  0.4287691046590602  0.7329381057044188  0.5288801278355324  1.0000
  C   C353      1.0  0.41668476201763627  0.7442422968225246  0.5062487532721832  1.0000
  C   C354      1.0  0.43422435971186485  0.7527736831768298  0.48261980218395706  1.0000
  C   C355      1.0  0.4650604053479734  0.7517058926743854  0.4816506697962456  1.0000
  C   C356      1.0  0.4788763830629954  0.7450100775875617  0.5049464181348184  1.0000
  C   C357      1.0  0.4071358874680714  0.7196367332042465  0.5552986360900642  1.0000
  C   C358      1.0  0.41394657163242377  0.7541161280655606  0.5706483115390366  1.0000
  C   C359      1.0  0.395046231871293  0.7751650091534472  0.5690290274446844  1.0000
  C   C360      1.0  0.40388661470714593  0.8054622424518001  0.5820117443366677  1.0000
  C   C361      1.0  0.4315728630649098  0.815144891057439  0.5968026956627456  1.0000
  C   C362      1.0  0.4508277329138965  0.7950573128167762  0.5979059218399516  1.0000
  C   C363      1.0  0.4421296483202128  0.7652621253340393  0.584935395292468  1.0000
  C   C364      1.0  0.36220694124237557  0.6799143256885581  0.5278094092436584  1.0000
  C   C365      1.0  0.3309655382638716  0.6637336501838741  0.5221551211199668  1.0000
  C   C366      1.0  0.3066003537530425  0.6650080644918176  0.5395527744448576  1.0000
  C   C367      1.0  0.3152724408455287  0.6841402033138022  0.5628058565776821  1.0000
  C   C368      1.0  0.3465639910655388  0.7014014754674287  0.5679481502323941  1.0000
  C   C369      1.0  0.370753341560488  0.6999290135334961  0.5503290389824287  1.0000
  C   C370      1.0  0.2702666881461031  0.648375576582904  0.5309890574339484  1.0000
  C   C371      1.0  0.2580028731839203  0.7341228800343631  0.4864475703568047  1.0000
  C   C372      1.0  0.27235184798239465  0.7132837234579233  0.4740438948285484  1.0000
  C   C373      1.0  0.27646018452128257  0.6868430780696831  0.4881928213443186  1.0000
  C   C374      1.0  0.2647119543890836  0.679060052867335  0.514519902015104  1.0000
  C   C375      1.0  0.25033508790263986  0.700499543580535  0.5265619306565414  1.0000
  C   C376      1.0  0.24667153349227283  0.7274317273889902  0.5125816372396811  1.0000
  C   C377      1.0  0.2457806572362096  0.6335642681004346  0.5549816871330768  1.0000
  C   C378      1.0  0.2560473490133736  0.6207506467675318  0.5777999803120852  1.0000
  C   C379      1.0  0.2360359934251234  0.6092590347983382  0.5993321921463949  1.0000
  C   C380      1.0  0.20399039986856918  0.6044488693369534  0.5967295535957485  1.0000
  C   C381      1.0  0.19265468515836742  0.6132072004890878  0.5728913349269473  1.0000
  C   C382      1.0  0.21318345430049848  0.6281074154461265  0.5524989203033424  1.0000
  C   C383      1.0  0.2453266216985071  0.6096839425924251  0.49063089024422146  1.0000
  C   C384      1.0  0.2434518061818541  0.5836417706494639  0.47359488380614956  1.0000
  C   C385      1.0  0.25998233785459535  0.5616175511854015  0.47892815952468737  1.0000
  C   C386      1.0  0.27651179482659805  0.5645638788066181  0.5027663781934885  1.0000
  C   C387      1.0  0.2792768910227962  0.5912700343641678  0.519710957047814  1.0000
  C   C388      1.0  0.2647191594768499  0.6153909317700094  0.5133232165300683  1.0000
  H   H273      1.0  0.47242813088288726  0.731105748546174  0.5462168294379257  1.0000
  H   H274      1.0  0.39270640280315494  0.7455784506821515  0.5072402346248105  1.0000
  H   H275      1.0  0.42335256836276175  0.759241402277407  0.4646695199084215  1.0000
  H   H276      1.0  0.5033173281254211  0.7449785426977319  0.5047310553819937  1.0000
  H   H277      1.0  0.3736570029313733  0.7684201551472545  0.5570398236294116  1.0000
  H   H278      1.0  0.3896241770743177  0.822145411068326  0.5799840837015816  1.0000
  H   H279      1.0  0.473159095607716  0.8024828490917523  0.6086212346550252  1.0000
  H   H280      1.0  0.4579114847816352  0.7501487456144655  0.5865810917999024  1.0000
  H   H281      1.0  0.3801204198395406  0.6781917335534714  0.5133780730803161  1.0000
  H   H282      1.0  0.32576208418911046  0.6501956380901946  0.5032925947310508  1.0000
  H   H283      1.0  0.29743803595887613  0.6869029328378494  0.5769161803358704  1.0000
  H   H284      1.0  0.3519217397270038  0.716904333665477  0.5857826242351842  1.0000
  H   H285      1.0  0.281319084287799  0.7179813117801683  0.45344830779661816  1.0000
  H   H286      1.0  0.28970746444453005  0.672357001982079  0.4785685443619516  1.0000
  H   H287      1.0  0.2428111048061197  0.6968693441456779  0.5475496404365393  1.0000
  H   H288      1.0  0.23583876533604517  0.74416603996052  0.5225452121439512  1.0000
  H   H289      1.0  0.280470440423901  0.621224178405908  0.5802014781784897  1.0000
  H   H290      1.0  0.2456913017843754  0.6023769387663398  0.6177721199259943  1.0000
  H   H291      1.0  0.16761660768908831  0.6098095197664807  0.5701038094847249  1.0000
  H   H292      1.0  0.20333747511150307  0.6346044279679255  0.5340081994216617  1.0000
  H   H293      1.0  0.2322295903115347  0.626483168104087  0.48468606557662475  1.0000
  H   H294      1.0  0.2304978869724182  0.5821981711698908  0.4548664512067284  1.0000
  H   H295      1.0  0.2889746089494135  0.546836393562173  0.5076486111655442  1.0000
  H   H296      1.0  0.29418638447344164  0.5938532629778928  0.5374113372611096  1.0000
  C   C389      1.0  0.12293584163900176  0.5450853048221852  0.6277377265543476  1.0000
  C   C390      1.0  0.10392847106736569  0.5656401593731434  0.6293915499581152  1.0000
  C   C391      1.0  0.07273724375698237  0.5532594762767536  0.6376342545638704  1.0000
  C   C392      1.0  0.05889681503808244  0.5193142946923149  0.6422950296108515  1.0000
  C   C393      1.0  0.07915006595168936  0.4994360879579353  0.6425489951212581  1.0000
  C   C394      1.0  0.11063976747140826  0.5123043176289214  0.6355801815157022  1.0000
  H   H297      1.0  0.11256224180274356  0.591402669080588  0.6233817101198543  1.0000
  H   H298      1.0  0.05892270763441392  0.5704278026890844  0.6389183041844859  1.0000
  H   H299      1.0  0.06039861627513286  0.9758111908561895  0.6484084873773582  1.0000
  H   H300      1.0  0.12491044804663669  0.49548064481861387  0.6345297801646607  1.0000
  C   C395      1.0  0.005471256025308883  0.9558304802501476  0.6130402345360993  1.0000
  C   C396      1.0  0.9942208573383527  0.9649393547965511  0.6373559083644648  1.0000
  C   C397      1.0  0.480536348891966  0.9471353893904951  0.6468968846594184  1.0000
  C   C398      1.0  0.4647360670750517  0.9182610581986268  0.6342859732746703  1.0000
  C   C399      1.0  0.47359812785075495  0.9107520291173536  0.6088365974078499  1.0000
  C   C400      1.0  0.9926409177063164  0.9247838173011635  0.6017844831148806  1.0000
  C   C401      1.0  0.008848796447674265  0.0012386056933655137  0.6501821825020376  1.0000
  C   C402      1.0  0.49642351395504114  0.52679960734137  0.638524149712335  1.0000
  C   C403      1.0  0.46963529080730443  0.5286073480498863  0.6527787258804343  1.0000
  C   C404      1.0  0.45099240392201556  0.5470233050742136  0.6430894337274032  1.0000
  C   C405      1.0  0.45765478544498245  0.562394233577435  0.6183084950839729  1.0000
  C   C406      1.0  0.48196764175471  0.5582520330772447  0.6028125355010064  1.0000
  C   C407      1.0  0.5012257517396489  0.5410379217920779  0.612828935231441  1.0000
  C   C408      1.0  0.014185259036108249  0.9771889974790812  0.6984295343070338  1.0000
  C   C409      1.0  0.015817376503971723  0.9796886769604666  0.7261869487324292  1.0000
  C   C410      1.0  0.012756106693645698  0.512188309457251  0.7351448202154892  1.0000
  C   C411      1.0  0.015860419930801523  0.53923994171556  0.71837293790824  1.0000
  C   C412      1.0  0.020536091922996973  0.5372412000191135  0.6909345041639156  1.0000
  C   C413      1.0  0.01992283104301417  0.5071595656244414  0.6788193334554811  1.0000
  C   C414      1.0  0.010417197107744238  0.5137021411947833  0.7674614234837028  1.0000
  C   C415      1.0  0.46261890165615055  0.9119490680284106  0.8052575866044485  1.0000
  C   C416      1.0  0.4835174157437712  0.9363390087839724  0.8200383793101101  1.0000
  C   C417      1.0  0.0036252837770813723  0.9687251462047378  0.8120963698686763  1.0000
  C   C418      1.0  0.4932952449314641  0.9741395062623883  0.7822991044636955  1.0000
  C   C419      1.0  0.47141667350451155  0.949614734419527  0.7676869448569439  1.0000
  C   C420      1.0  0.4564206507726686  0.9189787750169838  0.7789812990357443  1.0000
  C   C421      1.0  0.49132782449117546  0.5316942568378489  0.7808403265719204  1.0000
  C   C422      1.0  0.4677822395305072  0.5373658850376689  0.7644605670127389  1.0000
  C   C423      1.0  0.4533245585672205  0.5614576883357641  0.7709458302864809  1.0000
  C   C424      1.0  0.4600466627369474  0.578053257908351  0.7952371234258473  1.0000
  C   C425      1.0  0.4802591675506561  0.5699849928438515  0.8131386443233848  1.0000
  C   C426      1.0  0.9965923078267745  0.550205035449767  0.8061474817529131  1.0000
  C   C427      1.0  0.061297793923846315  0.563303763924063  0.7766509115122537  1.0000
  C   C428      1.0  0.09135387190707252  0.5761544790935924  0.7869192450290118  1.0000
  C   C429      1.0  0.10830270638361275  0.5549626393103848  0.7950867758436867  1.0000
  C   C430      1.0  0.09527777370888715  0.521362054277818  0.7917384945544866  1.0000
  C   C431      1.0  0.06587607077758069  0.5089003043948338  0.7804461720997693  1.0000
  C   C432      1.0  0.047142904739000395  0.5290721497847765  0.7745927750159189  1.0000
  H   H301      1.0  0.02361344676797803  0.9736814797207334  0.6014878513987257  1.0000
  H   H302      1.0  0.47115486810328705  0.9524226166825612  0.6660641696608222  1.0000
  H   H303      1.0  0.444437063896525  0.9015885127312654  0.6443836419684351  1.0000
  H   H304      1.0  0.0008634595607319394  0.9193538931889389  0.5822108532968263  1.0000
  H   H305      1.0  0.4634786543939293  0.516015291926391  0.6720597874305001  1.0000
  H   H306      1.0  0.4309646710918147  0.5489291785857702  0.6549486072013478  1.0000
  H   H307      1.0  0.48595094585551196  0.5684368941261524  0.5824709139794827  1.0000
  H   H308      1.0  0.5201293924249266  0.5382532509230629  0.5999762486807859  1.0000
  H   H309      1.0  0.0158978147237508  0.9547213658253235  0.6888926214602468  1.0000
  H   H310      1.0  0.018230549415104734  0.9587808747176707  0.7376072698043911  1.0000
  H   H311      1.0  0.016021690283641813  0.5629817841004178  0.7267822438888221  1.0000
  H   H312      1.0  0.023109526350081382  0.5592924064965333  0.6788173017313978  1.0000
  H   H313      1.0  0.4879700084980823  0.9316650069289549  0.8409854546084431  1.0000
  H   H314      1.0  0.023214557817268017  0.9862817865658683  0.8221716895975253  1.0000
  H   H315      1.0  0.46524389146969963  0.9541180355403526  0.7472051343736758  1.0000
  H   H316      1.0  0.4391862905069243  0.9006949898127881  0.7672155848696294  1.0000
  H   H317      1.0  0.4625303668940586  0.5246468805861111  0.7452526475296701  1.0000
  H   H318      1.0  0.4370306327337545  0.5670390954653884  0.7568355065282926  1.0000
  H   H319      1.0  0.4849078435642339  0.5817253466608595  0.8328483996550169  1.0000
  H   H320      1.0  0.013573823865590922  0.5440086413965346  0.8191708331265615  1.0000
  H   H321      1.0  0.04821599831649066  0.5804232547615304  0.7714984592371256  1.0000
  H   H322      1.0  0.100058579273564  0.6025858205969562  0.7904869525192031  1.0000
  H   H323      1.0  0.10750490159493695  0.5041173625876706  0.7985224212684666  1.0000
  H   H324      1.0  0.06097986817015255  0.9825370121561684  0.7750925791403992  1.0000
  C   C433      1.0  0.23359326425037988  0.7940074989660652  0.43367150557023865  1.0000
  C   C434      1.0  0.22103218478340736  0.8143393591470106  0.44889318240196613  1.0000
  C   C435      1.0  0.21741869152827495  0.8424943002029538  0.4377085413236613  1.0000
  C   C436      1.0  0.22593973329101438  0.8512034336971716  0.4109751158362254  1.0000
  C   C437      1.0  0.23729087819102057  0.8295771664514934  0.39559090107783773  1.0000
  C   C438      1.0  0.24175405164295272  0.801719828836018  0.4069604290477185  1.0000
  H   H325      1.0  0.21305106080010755  0.8082247698524138  0.46954768943231073  1.0000
  H   H326      1.0  0.20726768150912991  0.857510986546767  0.4504474513256543  1.0000
  H   H327      1.0  0.24314236418524557  0.8347243556123198  0.37438782854501496  1.0000
  H   H328      1.0  0.250973312728093  0.7855537930957393  0.39449986524513114  1.0000
  C   C439      1.0  0.28032438328423226  0.9042510577055761  0.3813566421505709  1.0000
  C   C440      1.0  0.2488430345318672  0.9006291918060587  0.3752614699008135  1.0000
  C   C441      1.0  0.2424322657818665  0.9121535666264132  0.35016358230039585  1.0000
  C   C442      1.0  0.26619323487842045  0.925065800020296  0.3316992738317974  1.0000
  C   C443      1.0  0.2973597505600162  0.9296049065728664  0.3384669467531114  1.0000
  C   C444      1.0  0.30419292710856133  0.9182458723887067  0.36320725091487666  1.0000
  C   C445      1.0  0.22232309019752333  0.884386317619808  0.39784001963799814  1.0000
  C   C446      1.0  0.2286737359444258  0.915573058059079  0.4177976453077872  1.0000
  C   C447      1.0  0.21490966348951504  0.9405189263381856  0.4128544606132339  1.0000
  C   C448      1.0  0.2197875227517291  0.9671229304187006  0.4298660863623068  1.0000
  C   C449      1.0  0.2381756699512067  0.9695316693918272  0.45252184161465503  1.0000
  C   C450      1.0  0.25394625796457504  0.9466755926625896  0.45694084149572917  1.0000
  C   C451      1.0  0.2497493015134856  0.9205061291019232  0.4393623647274288  1.0000
  C   C452      1.0  0.1798381269798129  0.8531292534737607  0.3629431267840539  1.0000
  C   C453      1.0  0.14890261123818516  0.8400499385227606  0.3547187076950479  1.0000
  C   C454      1.0  0.12397509698081954  0.843882582610636  0.3705864727852496  1.0000
  C   C455      1.0  0.13161870199223202  0.8628808516169681  0.393742032162078  1.0000
  C   C456      1.0  0.16219354241929593  0.8742709884759277  0.4023707643436512  1.0000
  C   C457      1.0  0.1871048092986866  0.8709465114763457  0.3868849633811009  1.0000
  C   C458      1.0  0.08757117682617102  0.8287496245988167  0.36251240127840434  1.0000
  C   C459      1.0  0.07738136374051732  0.9116816672337147  0.3128997308894624  1.0000
  C   C460      1.0  0.0849580151145139  0.885575991469648  0.30105884293226703  1.0000
  C   C461      1.0  0.0881134937306612  0.8600368420139619  0.31679860940522386  1.0000
  C   C462      1.0  0.08432745447717598  0.8596427625805113  0.34470230796461326  1.0000
  C   C463      1.0  0.07861268491193038  0.887628427421301  0.3562993890318183  1.0000
  C   C464      1.0  0.07373022260991538  0.912580984199965  0.3405575908347782  1.0000
  C   C465      1.0  0.06284343038487249  0.8189720441310718  0.3870820406171764  1.0000
  C   C466      1.0  0.0692851753979813  0.8034725364752329  0.41030058344058556  1.0000
  C   C467      1.0  0.04870961718643353  0.7961242617510816  0.43187342975656023  1.0000
  C   C468      1.0  0.01963685167270504  0.8011796341993146  0.42989859394763885  1.0000
  C   C469      1.0  0.0111131185008543  0.8131469469982843  0.4060380263139219  1.0000
  C   C470      1.0  0.03267982544472799  0.8226976682001881  0.3850950144637555  1.0000
  C   C471      1.0  0.051359554078917014  0.7831958690314884  0.33231082278085644  1.0000
  C   C472      1.0  0.043184406226570805  0.7536389262407446  0.318755159697396  1.0000
  C   C473      1.0  0.060937746752524814  0.7320663001446739  0.3215528437600346  1.0000
  C   C474      1.0  0.08646446007729126  0.7400893056807402  0.3388936088105944  1.0000
  C   C475      1.0  0.0941597223105411  0.7698367806140096  0.35268698361179546  1.0000
  C   C476      1.0  0.07812115701140325  0.7930730723982  0.3482903326956371  1.0000
  H   H329      1.0  0.2866161958048376  0.8956981860616037  0.40061129128755457  1.0000
  H   H330      1.0  0.21863466955415933  0.9112071657375725  0.3444889769358717  1.0000
  H   H331      1.0  0.2597366704931984  0.9331837368673148  0.3124324343503143  1.0000
  H   H332      1.0  0.3283278182971773  0.9202638575009198  0.36880058731607074  1.0000
  H   H333      1.0  0.19978473513539866  0.93913265299452  0.39545883901242634  1.0000
  H   H334      1.0  0.20766417500953263  0.985428162715206  0.4260586354302917  1.0000
  H   H335      1.0  0.26854919583744846  0.9480157531302155  0.47471639550010497  1.0000
  H   H336      1.0  0.26248646879899046  0.9027979675260351  0.4430235315254497  1.0000
  H   H337      1.0  0.19854149606826496  0.8485796993317083  0.35080967055887013  1.0000
  H   H338      1.0  0.14443045662164225  0.8264347189403021  0.33589884751188026  1.0000
  H   H339      1.0  0.11345834482901909  0.8673114328548917  0.4064707835436547  1.0000
  H   H340      1.0  0.1661585536737861  0.8861183548872659  0.4220439486417848  1.0000
  H   H341      1.0  0.08754454938227253  0.8839643187936751  0.27931533179329915  1.0000
  H   H342      1.0  0.09345673365059136  0.8397717414999755  0.3064916731308841  1.0000
  H   H343      1.0  0.07599364872749335  0.8890636082982221  0.3780469636189526  1.0000
  H   H344      1.0  0.06756798278016601  0.9331584148719351  0.3497247298984133  1.0000
  H   H345      1.0  0.09147913984204532  0.7977722159285833  0.411913772362688  1.0000
  H   H346      1.0  0.05574942139542886  0.7858403424472749  0.45004923340533676  1.0000
  H   H347      1.0  0.49695178112085364  0.8144592428864779  0.4067531931912267  1.0000
  H   H348      1.0  0.02513644323176979  0.8316781993377741  0.3664905170334126  1.0000
  H   H349      1.0  0.03685319887929335  0.7995305062141976  0.3297467869877918  1.0000
  H   H350      1.0  0.02262695754919565  0.7472283104411447  0.30575415728866345  1.0000
  H   H351      1.0  0.10081415688547887  0.7235486357596824  0.3413824708125787  1.0000
  H   H352      1.0  0.1137392928935753  0.7748768345805622  0.36665305496007283  1.0000
  C   C477      1.0  0.2392885759578204  0.8186177801151876  0.9827449390692172  1.0000
  C   C478      1.0  0.24490598559250787  0.8233267411188138  0.009961136835370185  1.0000
  C   C479      1.0  0.23385546442063923  0.84610013881089  0.023616760743726654  1.0000
  C   C480      1.0  0.2193117126797663  0.8662543989231278  0.009556397080745462  1.0000
  C   C481      1.0  0.21011630468944184  0.8574834539859912  0.9831736328507836  1.0000
  C   C482      1.0  0.22006051120479025  0.8340476028713244  0.9698739670018129  1.0000
  H   H353      1.0  0.258746023536403  0.8099807576883298  0.020514927585825116  1.0000
  H   H354      1.0  0.23995717048549026  0.8508533069166048  0.04475359907143535  1.0000
  H   H355      1.0  0.1956835107909587  0.8702395996681888  0.972828093818862  1.0000
  H   H356      1.0  0.21421127950158605  0.8294884695414976  0.948693243433906  1.0000
  C   C483      1.0  0.238013030993149  0.9351152357329235  0.979941159834329  1.0000
  C   C484      1.0  0.21656337634063913  0.9288852427296085  0.0016123640421246567  1.0000
  C   C485      1.0  0.19972925776618222  0.9516075542815935  0.006013578210573977  1.0000
  C   C486      1.0  0.20116427813001087  0.9766652332618083  0.9879725651354259  1.0000
  C   C487      1.0  0.2192585917561256  0.9794773995809712  0.9649957974779239  1.0000
  C   C488      1.0  0.2390654934326304  0.9600991445037833  0.9617125313593878  1.0000
  C   C489      1.0  0.21278324846895255  0.8983326847334525  0.022160420920851284  1.0000
  C   C490      1.0  0.23853847994672245  0.9168122988394504  0.04439682832241621  1.0000
  C   C491      1.0  0.22979231876547984  0.9331534498223176  0.06618117711545747  1.0000
  C   C492      1.0  0.25236817933130834  0.9519905342720133  0.08372613043638413  1.0000
  C   C493      1.0  0.284369296914819  0.9572750676258978  0.07886380836034433  1.0000
  C   C494      1.0  0.2929861686566137  0.9390755939207353  0.058894601863280834  1.0000
  C   C495      1.0  0.27073261695743894  0.9196981245587406  0.041629620121026355  1.0000
  C   C496      1.0  0.15052862401647107  0.8806250449894368  0.016730394501469084  1.0000
  C   C497      1.0  0.12017362020446275  0.8673915784330563  0.02641180356505707  1.0000
  C   C498      1.0  0.11373731309554054  0.8500615677863729  0.05062487532721832  1.0000
  C   C499      1.0  0.1397814090416518  0.8494467521990894  0.06600746470633938  1.0000
  C   C500      1.0  0.17056857018228616  0.8645196305135419  0.05699412715580648  1.0000
  C   C501      1.0  0.17684044908666338  0.8810984157302195  0.03225240078718293  1.0000
  C   C502      1.0  0.07756090675600531  0.8352839105086435  0.06117094552615689  1.0000
  C   C503      1.0  0.06810821219958817  0.9268503969040278  0.09910120243639717  1.0000
  C   C504      1.0  0.061299971887323355  0.9201175446254355  0.07208943074955564  1.0000
  C   C505      1.0  0.06529313406352581  0.8919175449344324  0.06065123050566091  1.0000
  C   C506      1.0  0.07331438807695413  0.8679282534003337  0.07602183271269079  1.0000
  C   C507      1.0  0.07932656224457797  0.8751018256703784  0.10350862149019673  1.0000
  C   C508      1.0  0.07766422371651112  0.9045826316259353  0.11474588422225779  1.0000
  C   C509      1.0  0.06964996817840538  0.8017796856526852  0.07862894105632035  1.0000
  C   C510      1.0  0.08473771531761061  0.7777857161809595  0.0732720973384169  1.0000
  C   C511      1.0  0.07626489213198952  0.7477208811001343  0.08678671959539565  1.0000
  C   C512      1.0  0.05076672643592186  0.7394257223743564  0.10419514105792774  1.0000
  C   C513      1.0  0.03537475368593438  0.7626733402369978  0.10973849704667377  1.0000
  C   C514      1.0  0.04495033580196172  0.793432037141901  0.09749471820376943  1.0000
  C   C515      1.0  0.020771057878651022  0.822380215657753  0.040107858782670265  1.0000
  C   C516      1.0  0.9996771116409904  0.8121800008942293  0.01927884697081515  1.0000
  C   C517      1.0  0.009112275501944203  0.8009263463129623  0.9955387056214581  1.0000
  C   C518      1.0  0.03914920879348385  0.7981132770204709  0.9933017774057972  1.0000
  C   C519      1.0  0.059653817033228425  0.8070838818888858  0.014642127536979702  1.0000
  C   C520      1.0  0.051731484086983505  0.8214415742841165  0.0377904742933125  1.0000
  H   H357      1.0  0.2532347447834549  0.9196870726884718  0.9765237999262983  1.0000
  H   H358      1.0  0.18491387450672392  0.9493681481173507  0.02387560239193302  1.0000
  H   H359      1.0  0.1873058141076544  0.9934596874515317  0.9916073195203645  1.0000
  H   H360      1.0  0.25412460937699416  0.9632156161042291  0.9439471359754282  1.0000
  H   H361      1.0  0.20530910339763614  0.9323818616233542  0.06922591882661962  1.0000
  H   H362      1.0  0.24517681150371823  0.9659200112340972  0.09949616959818143  1.0000
  H   H363      1.0  0.3177263181146114  0.9414195329246305  0.0554467660940014  1.0000
  H   H364      1.0  0.27905194525754523  0.9080039339275933  0.024967044569456243  1.0000
  H   H365      1.0  0.15371504191027022  0.8923660472363398  0.9969995152373166  1.0000
  H   H366      1.0  0.10102468030092036  0.8711822308022588  0.014678312542902429  1.0000
  H   H367      1.0  0.13623050941834342  0.8375391905928257  0.0857119375553551  1.0000
  H   H368      1.0  0.1900992593339134  0.8636484310040167  0.06972572295109972  1.0000
  H   H369      1.0  0.05443143202664012  0.9375609643090793  0.05914470709792921  1.0000
  H   H370      1.0  0.06102070885645997  0.8880804554258293  0.03913222487789243  1.0000
  H   H371      1.0  0.08648940349095831  0.8577188703353917  0.1162290428030321  1.0000
  H   H372      1.0  0.08312529367380833  0.909767976697319  0.13597028985795467  1.0000
  H   H373      1.0  0.10270485935411525  0.7817795441942977  0.0575873905881162  1.0000
  H   H374      1.0  0.08905802169776904  0.7299881017560166  0.08281165142651219  1.0000
  H   H375      1.0  0.016227348008375594  0.7576717083692294  0.12436203430829171  1.0000
  H   H376      1.0  0.032381596628245184  0.8109266644813238  0.10271746813217822  1.0000
  H   H377      1.0  0.01290926282450413  0.8307264148204933  0.058806628210476004  1.0000
  H   H378      1.0  0.48369529121304516  0.8104801782726734  0.009554446625625539  1.0000
  H   H379      1.0  0.04710992351057355  0.789244293158289  0.9748273103167825  1.0000
  H   H380      1.0  0.08286724172463457  0.8037098142058613  0.012886941418698731  1.0000
  C   C521      1.0  0.37674870084526374  0.9941976410228077  0.31342797915110804  1.0000
  C   C522      1.0  0.3815513921320697  0.5184293139755525  0.2913390749179872  1.0000
  C   C523      1.0  0.41094294448590524  0.5283640236794206  0.279008541456728  1.0000
  C   C524      1.0  0.435369904255227  0.515996700469291  0.2869932171039102  1.0000
  C   C525      1.0  0.43238602299040785  0.0001596898871262726  0.3121601833231585  1.0000
  C   C526      1.0  0.4032834288087191  0.9891694539807029  0.3247609360874903  1.0000
  H   H381      1.0  0.3639671492422388  0.5303454253911687  0.285784341274375  1.0000
  H   H382      1.0  0.41537814358880526  0.5473327814764603  0.2635369625627605  1.0000
  H   H383      1.0  0.4520658163046479  0.9959573196182662  0.3226560699372407  1.0000
  H   H384      1.0  0.4015136232317883  0.9776820853197553  0.3444300569374574  1.0000
  C   C527      1.0  0.004179429938026018  0.007630255605134194  0.29797874922205625  1.0000
  C   C528      1.0  0.4903107246005659  0.504368955347843  0.2794616159272933  1.0000
  C   C529      1.0  0.9987566787593875  0.9902484819343889  0.25242140010328623  1.0000
  C   C530      1.0  0.013290508493701114  0.9663758596490938  0.25819962339605623  1.0000
  C   C531      1.0  0.02327199886126822  0.9630034363285206  0.2842056916616878  1.0000
  C   C532      1.0  0.019378262199800142  0.9844527816782535  0.3038423049263229  1.0000
  C   C533      1.0  0.47067191969197336  0.5303966603896962  0.2736630753936908  1.0000
  C   C534      1.0  0.9856936766976219  0.5745380378076429  0.28475019371599947  1.0000
  C   C535      1.0  0.01815549186866802  0.5881834434314993  0.28833009155069034  1.0000
  C   C536      1.0  0.031179263207982776  0.6192974615238213  0.2988300416129391  1.0000
  C   C537      1.0  0.012555008284732041  0.6389518350706248  0.3054940966060071  1.0000
  C   C538      1.0  0.980417983612826  0.6265963936574417  0.3019304525639823  1.0000
  C   C539      1.0  0.4737479891436388  0.5879092501150853  0.29886864437052085  1.0000
  C   C540      1.0  0.444658711624995  0.5105923870559845  0.22660631390148042  1.0000
  C   C541      1.0  0.44348431707414604  0.5109187361476659  0.19887409285471758  1.0000
  C   C542      1.0  0.46651239665995076  0.533756283682614  0.183756643468461  1.0000
  C   C543      1.0  0.4913056772627646  0.5551565618073252  0.1977091022653806  1.0000
  C   C544      1.0  0.49219732024578233  0.555133261374346  0.22549496082794132  1.0000
  C   C545      1.0  0.4686925389165808  0.5333112919778705  0.24089746110307828  1.0000
  C   C546      1.0  0.46781147788962807  0.5339998845377381  0.1514073294425069  1.0000
  C   C547      1.0  0.023256530728508328  0.9770917226937054  0.13694470472828255  1.0000
  C   C548      1.0  0.48474861191564345  0.9658084707487194  0.12831475351225938  1.0000
  C   C549      1.0  0.4684075161546483  0.9848511891207139  0.14053963732118946  1.0000
  C   C550      1.0  0.48796189276414187  0.5084921077631431  0.14744932775592276  1.0000
  C   C551      1.0  0.021269786270629736  0.531738293214412  0.14444257928511745  1.0000
  C   C552      1.0  0.039814174296033414  0.5110542470209951  0.14208415396927798  1.0000
  C   C553      1.0  0.48218952452536684  0.5696318840566655  0.13736080182053265  1.0000
  C   C554      1.0  0.47689426576514976  0.5972736850881231  0.14919376605380333  1.0000
  C   C555      1.0  0.4896259514927412  0.6285135536309321  0.13861254702822448  1.0000
  C   C556      1.0  0.5061414413681503  0.6334765005121535  0.11474202394649961  1.0000
  C   C557      1.0  0.5108837702494599  0.606502517174946  0.10175605629598315  1.0000
  C   C558      1.0  0.49845864658728833  0.5747547121846298  0.11257966000469401  1.0000
  C   C559      1.0  0.42941645076729174  0.5050010546054323  0.11339336550003663  1.0000
  C   C560      1.0  0.39939510327973105  0.4889574974739993  0.1048725178672841  1.0000
  C   C561      1.0  0.36031129587536254  0.9988038378352846  0.12504408408303958  1.0000
  C   C562      1.0  0.3786821569918298  0.5186604815340985  0.13717835299785658  1.0000
  C   C563      1.0  0.4083204853641653  0.531684817162256  0.14823763670022472  1.0000
  C   C564      1.0  0.43396688793276017  0.5231490924380662  0.13728095506406085  1.0000
  H   H385      1.0  0.007030330710872717  0.5303107951610665  0.3167071818214775  1.0000
  H   H386      1.0  0.4754611330458603  0.976406681377093  0.23990394802636783  1.0000
  H   H387      1.0  0.015768918939074797  0.9495606683219406  0.24241312726918463  1.0000
  H   H388      1.0  0.028195400094820425  0.9829034000297285  0.3240376423138524  1.0000
  H   H389      1.0  0.03477108650599983  0.5752030032866106  0.2823222834365128  1.0000
  H   H390      1.0  0.05665595567247444  0.6280577557076998  0.30128842775367454  1.0000
  H   H391      1.0  0.9650448899572291  0.6411870159177012  0.30738360000343196  1.0000
  H   H392      1.0  0.4484681083647325  0.5804072227148099  0.30176181946507236  1.0000
  H   H393      1.0  0.4276120989988947  0.9944189313806127  0.2346011481690789  1.0000
  H   H394      1.0  0.42381894646277335  0.9985642366574591  0.18749278088515395  1.0000
  H   H395      1.0  0.008612922239050722  0.5855104428095733  0.18674876352586686  1.0000
  H   H396      1.0  0.009918130276125734  0.5840109172093995  0.23443251507016893  1.0000
  H   H397      1.0  0.4725690396101205  0.9399682924567935  0.1248600098810969  1.0000
  H   H398      1.0  0.4441442585185469  0.9731788774090214  0.14672400225820165  1.0000
  H   H399      1.0  0.0327691327588153  0.5581652978522625  0.14439361473471107  1.0000
  H   H400      1.0  0.06519566613078222  0.5217880399925476  0.1404305337379188  1.0000
  H   H401      1.0  0.46270828587395035  0.5950055832521878  0.16743072459748579  1.0000
  H   H402      1.0  0.4853300627411538  0.6489535675506016  0.14935244370470535  1.0000
  H   H403      1.0  0.5234006722930975  0.610250469166129  0.08257556508803826  1.0000
  H   H404      1.0  0.5012057083258644  0.5537571590581457  0.1013637303755071  1.0000
  H   H405      1.0  0.4489665460733328  0.49992336566349665  0.10296554164274335  1.0000
  H   H406      1.0  0.3804293218272252  0.9797357118066562  0.09171182194560794  1.0000
  H   H407      1.0  0.3590238832345473  0.5257066129104354  0.1455823764958221  1.0000
  H   H408      1.0  0.4111324033443801  0.5475661327467628  0.165892912638872  1.0000
  C   C565      1.0  0.5140221541270367  0.6683527458465156  0.10210896676924412  1.0000
  C   C566      1.0  0.038665590741661524  0.7041537420814354  0.11628552473254651  1.0000
  H   H409      1.0  0.03240715985557699  0.6742390152576386  0.07997983439927492  1.0000
  H   H410      1.0  0.4924977879116488  0.6769019084715895  0.10246289310454669  1.0000
  H   H411      1.0  0.025353075062862964  0.7048885981886377  0.13511066739833055  1.0000
  H   H412      1.0  0.05933023090744635  0.6964870987125296  0.12277668000612982  1.0000
  C   C567      1.0  0.3114024007342951  0.9855646225128507  0.09165798125740175  1.0000
  C   C568      1.0  0.32628899346731793  0.9765394574152687  0.1178032226227361  1.0000
  H   H413      1.0  0.3452119380356584  0.4915929976761376  0.06749570259732182  1.0000
  H   H414      1.0  0.32100460089829946  0.5087711581755082  0.08739136068257157  1.0000
  H   H415      1.0  0.3267667273842916  0.9504123452005367  0.11602688625674847  1.0000
  H   H416      1.0  0.3100346344407742  0.9760842862415362  0.13509360091603123  1.0000
  C   C569      1.0  0.06546903685579734  0.9591419592762294  0.11115115480175922  1.0000
  C   C570      1.0  0.043069278064310344  0.9531964430652456  0.13592030944550665  1.0000
  H   H417      1.0  0.08907343593348638  0.9754455055584138  0.11719553394943528  1.0000
  H   H418      1.0  0.05741266912824861  0.9737836117629308  0.09559302446184513  1.0000
  H   H419      1.0  0.026801903006325317  0.9275083462358314  0.13509095967472298  1.0000
  H   H420      1.0  0.05710718824905829  0.9547940906248016  0.15466499583759388  1.0000
  C   C571      1.0  0.3442226397926792  0.9822384746339177  0.32783087117728477  1.0000
  C   C572      1.0  0.32430032786995355  0.9469814729393485  0.3192569955459593  1.0000
  H   H421      1.0  0.347993156244443  0.9831974396033345  0.3499847905810696  1.0000
  H   H422      1.0  0.32900559408903385  0.5001749200499954  0.32167474720502975  1.0000
  H   H423      1.0  0.31512215454341114  0.9476851091039294  0.2985516954135335  1.0000
  H   H424      1.0  0.3399691028477302  0.9310538484593331  0.3171765100847088  1.0000
  C   C573      1.0  0.05181396564068627  0.699067843885925  0.3056464759122511  1.0000
  C   C574      1.0  0.027598934898786714  0.6707929808066793  0.3211302451507181  1.0000
  H   H425      1.0  0.07320386482093101  0.6915855174643167  0.3010202401746852  1.0000
  H   H426      1.0  0.042178849915011245  0.7027344887212912  0.2855791371419665  1.0000
  H   H427      1.0  0.008917402178941498  0.6807232398538609  0.3293018394135595  1.0000
  H   H428      1.0  0.039020080052777066  0.6644134002191932  0.3394523329334888  1.0000
  C   C575      1.0  0.03351962800685126  0.9336061922457113  0.29456545276219215  1.0000
  C   C576      1.0  0.0697494148171806  0.9387913340158284  0.2958881051403895  1.0000
  H   H429      1.0  0.02286499862084654  0.9266778106202362  0.3148095515277197  1.0000
  H   H430      1.0  0.022301852850322417  0.9115142599644857  0.2821719358543521  1.0000
  H   H431      1.0  0.07982201295869279  0.9406185317241961  0.2751624877671311  1.0000
  H   H432      1.0  0.08172552382217614  0.9630442747250287  0.30524419454376706  1.0000
  C   C577      1.0  0.26028220369110755  0.5341201723123717  0.4587653297224899  1.0000
  C   C578      1.0  0.23435844278610657  0.5020728900908182  0.46648181779068276  1.0000
  H   H433      1.0  0.2555279721548382  0.5415844754498224  0.438100664071729  1.0000
  H   H434      1.0  0.28411519963694537  0.5305966009696432  0.4578002607829449  1.0000
  H   H435      1.0  0.21117693467737  0.5072394038766486  0.4667682908864213  1.0000
  H   H436      1.0  0.23715491041390138  0.4950462768755345  0.4877722544590853  1.0000
  C   C579      1.0  0.4836116510374446  0.7575266273517646  0.4549558470663915  1.0000
  C   C580      1.0  0.998123374764676  0.7940745561821148  0.45502086223705557  1.0000
  H   H437      1.0  0.49466287514035834  0.7373464115637692  0.45211549679800456  1.0000
  H   H438      1.0  0.46764488312983454  0.7560316409812965  0.4373794020221744  1.0000
  H   H439      1.0  0.4981535151211085  0.8117711932295882  0.4559270111781862  1.0000
  H   H440      1.0  0.013070685963207918  0.7955968747684768  0.47328809346957845  1.0000
  C   C581      1.0  0.2377746107660818  0.7621930875325735  0.4457318197284253  1.0000
  C   C582      1.0  0.2572954356722405  0.766650948837239  0.4722417555667035  1.0000
  H   H441      1.0  0.24770335325048037  0.7486342635873044  0.4305670311710289  1.0000
  H   H442      1.0  0.21373002514306647  0.7454748064992827  0.4499110761676756  1.0000
  H   H443      1.0  0.2486952355743519  0.7821511992202579  0.4866690282818792  1.0000
  H   H444      1.0  0.2820891132964285  0.7812621732230778  0.46786135844321114  1.0000
  C   C583      1.0  0.4391561447914569  0.5849397609798127  0.607654133991397  1.0000
  C   C584      1.0  0.4546850498686859  0.6220779958094619  0.6142633324342173  1.0000
  H   H445      1.0  0.4359852444361987  0.5812541588816938  0.5854839607949461  1.0000
  H   H446      1.0  0.41500429852525295  0.5776926405547831  0.6163600716881338  1.0000
  H   H447      1.0  0.48023851643557225  0.6289307262295083  0.6087715822371859  1.0000
  H   H448      1.0  0.45377636532991505  0.6251936926022492  0.6366285511426604  1.0000
  C   C585      1.0  0.15490766851057733  0.5567000066051173  0.6120406262871391  1.0000
  C   C586      1.0  0.179630101720313  0.5905491171185507  0.6195275295339244  1.0000
  H   H449      1.0  0.16632701203512307  0.536643607639213  0.6120812607688041  1.0000
  H   H450      1.0  0.14833328628955716  0.5586043183811708  0.5906100006569921  1.0000
  H   H451      1.0  0.1915517340695817  0.5872244828015435  0.6384957055751694  1.0000
  H   H452      1.0  0.1679427125388774  0.6096052517893252  0.6245966811216394  1.0000
  C   C587      1.0  0.44182911980514483  0.8479123652239079  0.6119715476683084  1.0000
  C   C588      1.0  0.45825120263100416  0.8778271333854862  0.5938973302236946  1.0000
  H   H453      1.0  0.4580499159174519  0.8467162265252195  0.6286459072195615  1.0000
  H   H454      1.0  0.4210098359686501  0.8521329390771972  0.622284579114898  1.0000
  H   H455      1.0  0.44114136799072673  0.8817489146448708  0.5788910161447919  1.0000
  H   H456      1.0  0.4764389242375047  0.8712331393949242  0.5814306712488574  1.0000
  C   C589      1.0  0.4729542875006151  0.7519596148898456  0.962655251334017  1.0000
  C   C590      1.0  0.4992393721684936  0.7853033131213832  0.9628035671920944  1.0000
  H   H457      1.0  0.4571830662123149  0.7511775923497231  0.9802885846525651  1.0000
  H   H458      1.0  0.483148915824245  0.7313410583930916  0.9662514029613738  1.0000
  H   H459      1.0  0.0009370242666822025  0.8071548076789454  0.952990339869985  1.0000
  H   H460      1.0  0.4888933789335696  0.8056472088774412  0.9588640541946679  1.0000
  C   C591      1.0  0.24514669799809855  0.5465556620018186  0.9604508307036881  1.0000
  C   C592      1.0  0.22389906133198925  0.5131673040409774  0.9499569758136891  1.0000
  H   H461      1.0  0.2695866021823012  0.54542551437098  0.9636711133756432  1.0000
  H   H462      1.0  0.23695995013930254  0.5517915317547957  0.9807619763639629  1.0000
  H   H463      1.0  0.1992047198597507  0.513781517637432  0.9471288158898016  1.0000
  H   H464      1.0  0.23183921833113594  0.5082650101066817  0.9295056411916698  1.0000
  C   C593      1.0  0.2268596646452208  0.7640366294532726  0.9572833728578974  1.0000
  C   C594      1.0  0.2527733318430048  0.7955003956582382  0.9659182002117205  1.0000
  H   H465      1.0  0.2069567752147766  0.7703530265660898  0.9475087482933698  1.0000
  H   H466      1.0  0.21632513483001065  0.7502688309752104  0.9758919337364067  1.0000
  H   H467      1.0  0.2712507334739857  0.7883828997683388  0.9772735061130186  1.0000
  H   H468      1.0  0.2652459579731903  0.8088808872267954  0.9478744586283553  1.0000
  C   C595      1.0  0.4479643318451006  0.6071905347580997  0.8024883466789754  1.0000
  C   C596      1.0  0.41321871891434836  0.5987918929029591  0.8120740209037606  1.0000
  H   H469      1.0  0.4632676542297818  0.6219120933933479  0.8184861421105053  1.0000
  H   H470      1.0  0.45216214514375924  0.6243322406493548  0.7849911388740051  1.0000
  H   H471      1.0  0.4079591508766147  0.5775138614549011  0.8262127887991144  1.0000
  H   H472      1.0  0.39723683006611105  0.5904560915245655  0.7946255744767884  1.0000
  C   C597      1.0  0.13921055013443023  0.5666602415842962  0.8114929478159503  1.0000
  C   C598      1.0  0.16215336999957544  0.6010816909930531  0.8036586197509289  1.0000
  H   H473      1.0  0.13242268017770903  0.5666665365308575  0.8331490948193383  1.0000
  H   H474      1.0  0.15242135336489981  0.5480899578701668  0.8109200016244731  1.0000
  H   H475      1.0  0.1490480435074355  0.6191014983251587  0.7997353605461683  1.0000
  H   H476      1.0  0.17368082673901727  0.599027341981289  0.7840463871752928  1.0000
  C   C599      1.0  0.44423771725295763  0.8790788072306644  0.819924602761448  1.0000
  C   C600      1.0  0.4394618930371549  0.8457347267880173  0.8047415286873024  1.0000
  H   H477      1.0  0.45655449417059457  0.8775974778308708  0.8391711250020987  1.0000
  H   H478      1.0  0.42062711581148715  0.8806194463908416  0.8262371694881134  1.0000
  H   H479      1.0  0.4624796081951826  0.8467983241590915  0.7951721082551833  1.0000
  H   H480      1.0  0.42294846054444357  0.8448020181978687  0.7877055222492304  1.0000
  C   C601      1.0  0.9259293610525358  0.14657243656902066  0.8208307517025787  1.0000
  C   C602      1.0  0.9249282157171819  0.14736301745336042  0.8489335592221268  1.0000
  C   C603      1.0  0.9151655417091695  0.17137532622312973  0.8624262388590064  1.0000
  C   C604      1.0  0.9071850366662491  0.19590463213485818  0.8476352875329284  1.0000
  C   C605      1.0  0.9067703825268164  0.19334833528533135  0.8196564151824587  1.0000
  C   C606      1.0  0.9162713467726488  0.16955059553342527  0.8064217645041521  1.0000
  H   H481      1.0  0.9321940156364938  0.12917697375300016  0.8605509575301643  1.0000
  H   H482      1.0  0.9145035032510703  0.17133248248502495  0.8844054299916315  1.0000
  H   H483      1.0  0.8989948361931858  0.21051968933103393  0.8073015010322004  1.0000
  H   H484      1.0  0.9168571062848114  0.17003371762853248  0.7844893030254418  1.0000
  C   C607      1.0  0.933389987123616  0.2708032284208003  0.8285127004613562  1.0000
  C   C608      1.0  0.904893340328085  0.2587198981722198  0.8425153428431322  1.0000
  C   C609      1.0  0.8841472383277956  0.2777391609713289  0.8419647456165708  1.0000
  C   C610      1.0  0.8924222801100987  0.3085763379949111  0.8300141445588798  1.0000
  C   C611      1.0  0.9212601592607061  0.3207529740955645  0.8170172055983138  1.0000
  C   C612      1.0  0.941606512838929  0.30154177421179357  0.816342673202674  1.0000
  C   C613      1.0  0.8980360809669605  0.22588721215813012  0.8610934278603927  1.0000
  C   C614      1.0  0.9206528235292704  0.24092131713347803  0.8864899789010485  1.0000
  C   C615      1.0  0.9096811534542459  0.25650199120889605  0.9074167369585489  1.0000
  C   C616      1.0  0.9267846694751345  0.2659022104742874  0.9308973721886977  1.0000
  C   C617      1.0  0.9561641342038348  0.2614363912909318  0.9334309321205134  1.0000
  C   C618      1.0  0.9692480655165799  0.2498078217090078  0.9116752306370461  1.0000
  C   C619      1.0  0.9516818670859947  0.23958291462669967  0.888529829880634  1.0000
  C   C620      1.0  0.837696499469197  0.2030800034538982  0.8473020847832751  1.0000
  C   C621      1.0  0.8062013898463338  0.18747025173575216  0.8532144018655397  1.0000
  C   C622      1.0  0.7966716029580574  0.17514206249592817  0.8790619956526776  1.0000
  C   C623      1.0  0.8201153634680683  0.18097937627838828  0.8985665468519012  1.0000
  C   C624      1.0  0.8514432961064337  0.1951417707514765  0.8923779152943141  1.0000
  C   C625      1.0  0.860985640087466  0.20810147575496496  0.8671012359745703  1.0000
  C   C626      1.0  0.7610399238892761  0.15670785057135667  0.8887817636669573  1.0000
  C   C627      1.0  0.7370314094090238  0.2356778330763106  0.9337356907330013  1.0000
  C   C628      1.0  0.7337426824513763  0.23345009858300325  0.906041259754187  1.0000
  C   C629      1.0  0.7431210524042173  0.21007778348349304  0.8916668118651758  1.0000
  C   C630      1.0  0.7529356294663034  0.18600674420038085  0.9051026032277243  1.0000
  C   C631      1.0  0.757228196726194  0.1897813770773216  0.9330408410965291  1.0000
  C   C632      1.0  0.7501163371935069  0.21466331597143606  0.9469683096872247  1.0000
  C   C633      1.0  0.7577489807183214  0.1239973054841695  0.9065756031880825  1.0000
  C   C634      1.0  0.7780654692772382  0.10481743919260006  0.9036946184380305  1.0000
  C   C635      1.0  0.7745216859725853  0.07668830898339037  0.9188817559603426  1.0000
  C   C636      1.0  0.7510034895134104  0.06761670229006585  0.9380652947544125  1.0000
  C   C637      1.0  0.7294245126595834  0.08485171762350131  0.9402920643496572  1.0000
  C   C638      1.0  0.7324933429145896  0.11230379620833833  0.9244100771908726  1.0000
  C   C639      1.0  0.7040479271363058  0.13879780962247815  0.867887513194789  1.0000
  C   C640      1.0  0.6827435901666709  0.12362061956504952  0.8481107109684095  1.0000
  C   C641      1.0  0.6919836678090646  0.1071339201789536  0.8269848439507503  1.0000
  C   C642      1.0  0.7227058309759857  0.1059986701602659  0.8258369198437128  1.0000
  C   C643      1.0  0.744448964685932  0.1237057587790743  0.8442890379678116  1.0000
  C   C644      1.0  0.7359065421176455  0.14062782031512597  0.8657216953220418  1.0000
  H   H485      1.0  0.9503608383848521  0.2569219090500995  0.8283135915011974  1.0000
  H   H486      1.0  0.8616128654910492  0.26905909475648143  0.8523915536118224  1.0000
  H   H487      1.0  0.8758887334561836  0.3229522224152456  0.8309202935000104  1.0000
  H   H488      1.0  0.9643013403475951  0.3103750739940068  0.8061576403733294  1.0000
  H   H489      1.0  0.8867696526418  0.2605995370266422  0.9056836763155346  1.0000
  H   H490      1.0  0.9163288224519155  0.27505229046063473  0.9479333786267695  1.0000
  H   H491      1.0  0.9925603021870785  0.2466254144967854  0.9132863878350653  1.0000
  H   H492      1.0  0.9622126479954723  0.22929379440436645  0.8722211806643666  1.0000
  H   H493      1.0  0.8438836168086186  0.21136195578141925  0.8267369736125936  1.0000
  H   H494      1.0  0.7887939416319107  0.1855756008553452  0.8374908891852488  1.0000
  H   H495      1.0  0.8142051748359975  0.17344219936796818  0.9193815600848227  1.0000
  H   H496      1.0  0.8684448621866905  0.19624373565085515  0.9081786334897686  1.0000
  H   H497      1.0  0.7236519569966866  0.25015464134137005  0.8954803579694407  1.0000
  H   H498      1.0  0.7415284788615023  0.209809488715057  0.8697404455587152  1.0000
  H   H499      1.0  0.7664461421314193  0.17325400274089853  0.9449243952594727  1.0000
  H   H500      1.0  0.7537725023184542  0.217208848989005  0.9686366470351123  1.0000
  H   H501      1.0  0.7969233782287288  0.11167303772230762  0.8888061443559564  1.0000
  H   H502      1.0  0.7912266337834595  0.0627008038547342  0.916494480162521  1.0000
  H   H503      1.0  0.7110681994419177  0.07789921753525288  0.9557209770378764  1.0000
  H   H504      1.0  0.71492700842719  0.1252570377026366  0.926868463331608  1.0000
  H   H505      1.0  0.6954704748988546  0.1496990331739394  0.884980407907192  1.0000
  H   H506      1.0  0.6584200556701257  0.12387070940153216  0.8495451081711857  1.0000
  H   H507      1.0  0.7304153664607904  0.09260787522427975  0.8099142982032631  1.0000
  H   H508      1.0  0.7684845474946403  0.12270456213505719  0.8426372462881273  1.0000
  C   C645      1.0  0.925794671883408  0.13310568799458478  0.5985540418225092  1.0000
  C   C646      1.0  0.9169197556803711  0.15687443414002722  0.6128655062649395  1.0000
  C   C647      1.0  0.9088517370567276  0.18163158243181424  0.5996125700698838  1.0000
  C   C648      1.0  0.9118825000208356  0.1852399788031744  0.5717921721979078  1.0000
  C   C649      1.0  0.9184510830958809  0.15974530365405687  0.5573933436198976  1.0000
  C   C650      1.0  0.9252603360398616  0.1340445581101809  0.5706645653317026  1.0000
  H   H509      1.0  0.9160103938263149  0.15653659450684596  0.6348325070530652  1.0000
  H   H510      1.0  0.9012141979680404  0.19921331496135342  0.6116871062966531  1.0000
  H   H511      1.0  0.919574515326067  0.1602362842543026  0.5354872945542695  1.0000
  H   H512      1.0  0.9315231859268872  0.1150189864975228  0.5592665932246563  1.0000
  C   C651      1.0  0.9584017297833543  0.22790153343831265  0.5304790946890521  1.0000
  C   C652      1.0  0.9275678982974855  0.22948524132696194  0.5317489222410849  1.0000
  C   C653      1.0  0.917208629782603  0.24396123002066822  0.5098245876587075  1.0000
  C   C654      1.0  0.9358572253199868  0.2543933952283781  0.48714648344144357  1.0000
  C   C655      1.0  0.9651550950967909  0.2496770933033805  0.4853951372816799  1.0000
  C   C656      1.0  0.9763962948072624  0.23652682374285364  0.5074149628959701  1.0000
  C   C657      1.0  0.905451760832992  0.21648857786668985  0.5578301642977967  1.0000
  C   C658      1.0  0.9158309836886984  0.24945541703596605  0.5763655831093091  1.0000
  C   C659      1.0  0.8981917512846959  0.2714153695319666  0.5764387251763061  1.0000
  C   C660      1.0  0.9083495171729838  0.3013747089027545  0.5893808075866244  1.0000
  C   C661      1.0  0.9358790673996679  0.3093968344357938  0.6042123933943674  1.0000
  C   C662      1.0  0.9535306295815403  0.28770331344345373  0.605384698190404  1.0000
  C   C663      1.0  0.9442272336516725  0.25873104473099034  0.5909858696123937  1.0000
  C   C664      1.0  0.8600937308360189  0.18084532206788617  0.5275757609740843  1.0000
  C   C665      1.0  0.8294253441961181  0.16237863990294427  0.5224050231822068  1.0000
  C   C666      1.0  0.8044260251734673  0.1635805942665016  0.5390814144575431  1.0000
  C   C667      1.0  0.8125504771000741  0.18236932496594224  0.5624442096908632  1.0000
  C   C668      1.0  0.8437406589936604  0.19853840240328863  0.5689010288274395  1.0000
  C   C669      1.0  0.8683142947858807  0.1996603991251122  0.551007634826235  1.0000
  C   C670      1.0  0.7681278730283014  0.1463787505778271  0.5300788450446514  1.0000
  C   C671      1.0  0.7633707905711944  0.23155282409264608  0.4801837650081373  1.0000
  C   C672      1.0  0.7751306311046678  0.2075025044152675  0.4696452121883068  1.0000
  C   C673      1.0  0.7758157041991126  0.18054585418573482  0.48510053728960834  1.0000
  C   C674      1.0  0.7652112844549995  0.17701557904346207  0.511799423467629  1.0000
  C   C675      1.0  0.7548395204185449  0.20261752066273603  0.5225127045586192  1.0000
  C   C676      1.0  0.7525421715957321  0.2286891906552215  0.5064681794731745  1.0000
  C   C677      1.0  0.7414645035616808  0.13494302371297798  0.5535493216543839  1.0000
  C   C678      1.0  0.748111481200358  0.12087705298703777  0.5772920492912722  1.0000
  C   C679      1.0  0.7257028794082294  0.10979455800998218  0.5975198942641338  1.0000
  C   C680      1.0  0.6959624239787204  0.1133250888544975  0.5946998612365794  1.0000
  C   C681      1.0  0.6882632097203643  0.1260499371068503  0.5708596108436949  1.0000
  C   C682      1.0  0.7105597286587608  0.13579807487091355  0.5503127851897627  1.0000
  C   C683      1.0  0.7392793491168058  0.10210592506326212  0.4943428501443238  1.0000
  C   C684      1.0  0.7348294833642439  0.07362954792807068  0.479320282272755  1.0000
  C   C685      1.0  0.7538931953793179  0.053634311144073236  0.4835543952622532  1.0000
  C   C686      1.0  0.7768260456972262  0.0619657049862196  0.5031178664598912  1.0000
  C   C687      1.0  0.7806991067155785  0.09011748006626637  0.5185488108721936  1.0000
  C   C688      1.0  0.7626377200988886  0.11161413539396334  0.5140749544408717  1.0000
  H   H513      1.0  0.9683990169205151  0.2181996559707033  0.5473017700983825  1.0000
  H   H514      1.0  0.8936158789789475  0.2459817559872009  0.509690493869213  1.0000
  H   H515      1.0  0.9266983320752109  0.2645640299615947  0.4700556204531238  1.0000
  H   H516      1.0  0.9993932495328979  0.23248397609417668  0.5069415711845723  1.0000
  H   H517      1.0  0.8766322041105102  0.2663065622667375  0.5649919916912617  1.0000
  H   H518      1.0  0.8950789010418743  0.3189827897250547  0.587277973160458  1.0000
  H   H519      1.0  0.9756440453130506  0.29424805446588576  0.6163478813436343  1.0000
  H   H520      1.0  0.9597932781012828  0.24328812972117675  0.5913089137416309  1.0000
  H   H521      1.0  0.8778736058597473  0.179331669320736  0.5128965544725853  1.0000
  H   H522      1.0  0.825237596656285  0.14847186570420362  0.5037212885126171  1.0000
  H   H523      1.0  0.7940750408148305  0.1843377882767807  0.5761746010454832  1.0000
  H   H524      1.0  0.8484469283145547  0.21176081566739668  0.5878813952131839  1.0000
  H   H525      1.0  0.7838482120575323  0.20938820802815097  0.4489622610207967  1.0000
  H   H526      1.0  0.7856923996886718  0.16254630103278114  0.47625847407929356  1.0000
  H   H527      1.0  0.7479119546455975  0.2018957634328526  0.5436243495076956  1.0000
  H   H528      1.0  0.743176192777249  0.24747802158630647  0.5148002799385929  1.0000
  H   H529      1.0  0.7715087507838873  0.11835601324434662  0.5803619843810667  1.0000
  H   H530      1.0  0.7318904075889151  0.09910152927245043  0.6158968385971523  1.0000
  H   H531      1.0  0.6647265428770458  0.12822016971973557  0.5679522136805606  1.0000
  H   H532      1.0  0.7035097629093449  0.1446278644413465  0.5315335594882601  1.0000
  H   H533      1.0  0.724914236075439  0.11795340387224337  0.48936512614035527  1.0000
  H   H534      1.0  0.7170951815805419  0.06809810903795421  0.46356019855896563  1.0000
  H   H535      1.0  0.7916027408804976  0.04618134858427327  0.5067912236024116  1.0000
  H   H536      1.0  0.7987978842623099  0.09534209866895639  0.5339919456289955  1.0000
  C   C689      1.0  0.619182423838269  0.053640586985092435  0.6281298493024153  1.0000
  C   C690      1.0  0.599856919685447  0.07242987018633305  0.6359926215046023  1.0000
  C   C691      1.0  0.569315529916216  0.05727381300186232  0.644568528860011  1.0000
  C   C692      1.0  0.5566589520588529  0.022982724948792155  0.644318626797771  1.0000
  C   C693      1.0  0.5778504812412127  0.004798136992028967  0.6400276255339418  1.0000
  C   C694      1.0  0.6087225017006319  0.019820694970303032  0.6319535540270964  1.0000
  H   H537      1.0  0.6071296900443882  0.0990116583787207  0.6328657981404768  1.0000
  H   H538      1.0  0.5542671339686042  0.07277837904326517  0.6485100735815208  1.0000
  H   H539      1.0  0.5675500802209522  0.47480190070368106  0.645155697120071  1.0000
  H   H540      1.0  0.6235393832020133  0.004493807785501664  0.6265024383117301  1.0000
  C   C695      1.0  0.5093166437187167  0.46192737260625666  0.6111994925166725  1.0000
  C   C696      1.0  0.5015837499843947  0.47122333045797876  0.6367077883819072  1.0000
  C   C697      1.0  0.9771439414173043  0.44614153181996996  0.6441885964564428  1.0000
  C   C698      1.0  0.9625344010610213  0.41594166565427115  0.6324635167719929  1.0000
  C   C699      1.0  0.9755620384976793  0.4061453545303009  0.609915442896057  1.0000
  C   C700      1.0  0.4915163202991619  0.4327069916293029  0.5994297149023909  1.0000
  C   C701      1.0  0.5193658372880651  0.5065193980717133  0.6502939273266164  1.0000
  C   C702      1.0  0.9833747491840207  0.017749291420804544  0.6378679028334444  1.0000
  C   C703      1.0  0.9556326175587588  0.01703607826135371  0.651858354870721  1.0000
  C   C704      1.0  0.9343488377886598  0.03210300741175452  0.6418013206586212  1.0000
  C   C705      1.0  0.9403272882188047  0.04834360366010142  0.6173759337297601  1.0000
  C   C706      1.0  0.9660962003271336  0.047260310882949255  0.6020486072457034  1.0000
  C   C707      1.0  0.9873455623962242  0.03237925537834277  0.612249893867714  1.0000
  C   C708      1.0  0.523297552814368  0.48071627210567713  0.698518930166697  1.0000
  C   C709      1.0  0.522599260543665  0.4817807809768159  0.7265485956192479  1.0000
  C   C710      1.0  0.5137189208916616  0.009396743494065083  0.7366767401742614  1.0000
  C   C711      1.0  0.51111329811204  0.03559377342218526  0.7210832578352988  1.0000
  C   C712      1.0  0.512793339603625  0.03521465537149657  0.6933664778915688  1.0000
  C   C713      1.0  0.5170954988855262  0.00826696981456438  0.6798230051526079  1.0000
  C   C714      1.0  0.5111536301133119  0.009841403221993908  0.769094929646638  1.0000
  C   C715      1.0  0.9602599972717731  0.4175573272419472  0.8051966348819509  1.0000
  C   C716      1.0  0.9865471875171642  0.43902468047582577  0.8170944111134774  1.0000
  C   C717      1.0  0.5022705154408346  0.4662416071380063  0.8109890802433037  1.0000
  C   C718      1.0  0.9918543454393732  0.4783985985860351  0.7807204548510084  1.0000
  C   C719      1.0  0.9650477264868342  0.456455242245246  0.7691701034377182  1.0000
  C   C720      1.0  0.9489983000872719  0.4271052258559514  0.781594096206807  1.0000
  C   C721      1.0  0.9882119129119737  0.03063809153231348  0.7829959858242512  1.0000
  C   C722      1.0  0.9609926538935282  0.03066312726277798  0.7691132151633873  1.0000
  C   C723      1.0  0.9422347148232003  0.04903813242959666  0.7782641004343562  1.0000
  C   C724      1.0  0.948152006519271  0.06520275056141289  0.8026102501239706  1.0000
  C   C725      1.0  0.9737820305234166  0.06366943459203075  0.8176003104102072  1.0000
  C   C726      1.0  0.49669811724319785  0.047632776089268615  0.8060682445136663  1.0000
  C   C727      1.0  0.563121003394115  0.05952551928873277  0.7774595376973882  1.0000
  C   C728      1.0  0.5922966865558618  0.07235423884433484  0.7897575635733154  1.0000
  C   C729      1.0  0.6087403909918874  0.051778577305485816  0.7995768860676745  1.0000
  C   C730      1.0  0.5959825251601922  0.018264360906363943  0.7960030834052335  1.0000
  C   C731      1.0  0.5667678448250151  0.005386002497109787  0.7841459416553722  1.0000
  C   C732      1.0  0.5482416404356536  0.02546596203272109  0.7768317349556633  1.0000
  H   H541      1.0  0.5285513122862  0.4782769343123571  0.5996857121368808  1.0000
  H   H542      1.0  0.9666402979820241  0.45343689495339146  0.6620413559759822  1.0000
  H   H543      1.0  0.9415634908436896  0.39980528385128483  0.642073571685777  1.0000
  H   H544      1.0  0.49786735155293216  0.42650082325171107  0.5793725347525227  1.0000
  H   H545      1.0  0.9502034837093859  0.004853051417648291  0.6713527474495283  1.0000
  H   H546      1.0  0.9136369258599726  0.03245433497308719  0.65346951206874  1.0000
  H   H547      1.0  0.9709638346345905  0.06004960663697595  0.582730974662139  1.0000
  H   H548      1.0  0.008280186754059041  0.03343293283105917  0.6004719893570996  1.0000
  H   H549      1.0  0.5243006924237161  0.45799998573017114  0.6890084297329923  1.0000
  H   H550      1.0  0.5229690790547474  0.4601983042752428  0.7382675801314483  1.0000
  H   H551      1.0  0.5082336232908987  0.057464312341471355  0.7307725499883299  1.0000
  H   H552      1.0  0.5101755932359833  0.05621817217650434  0.6821472975038487  1.0000
  H   H553      1.0  0.9952853655404524  0.4325330260797477  0.8361662050829684  1.0000
  H   H554      1.0  0.5203839685750025  0.483376820768596  0.8228177778559995  1.0000
  H   H555      1.0  0.9556491579285088  0.46306952526642486  0.7505554473869591  1.0000
  H   H556      1.0  0.9277771021142819  0.4115773339607684  0.7720673419804361  1.0000
  H   H557      1.0  0.9543641576785846  0.01739886254918829  0.7502344349818053  1.0000
  H   H558      1.0  0.9216730613256231  0.04931370725316972  0.7666548290226517  1.0000
  H   H559      1.0  0.9781876430062392  0.07552262153026533  0.8371759719523447  1.0000
  H   H560      1.0  0.5165921127254165  0.04551083560191254  0.8177648800609507  1.0000
  H   H561      1.0  0.5507629125891685  0.07662174954236863  0.7705577709865796  1.0000
  H   H562      1.0  0.6017121765812595  0.09883238392220228  0.7926852779772823  1.0000
  H   H563      1.0  0.6083860535727612  0.0012658159143250547  0.8030145632165377  1.0000
  H   H564      1.0  0.5609604119282434  0.4782852386636538  0.7825144672165204  1.0000
  C   C733      1.0  0.7289320262319426  0.2865592394881587  0.43283849869610513  1.0000
  C   C734      1.0  0.7217339318278388  0.31025741285364355  0.4485213768947309  1.0000
  C   C735      1.0  0.7188364669804714  0.3387940145409858  0.4369588351369411  1.0000
  C   C736      1.0  0.7259902800144481  0.34608805493024275  0.4097560813862739  1.0000
  C   C737      1.0  0.7333610321107654  0.3216507651293897  0.3943210735258049  1.0000
  C   C738      1.0  0.7342027081875855  0.29209131710907715  0.40554634908577475  1.0000
  H   H565      1.0  0.7166342305574592  0.3059992956035048  0.46993778045629514  1.0000
  H   H566      1.0  0.7113157109814138  0.35579882329015605  0.44979526789493024  1.0000
  H   H567      1.0  0.7373828865860064  0.3254446561336293  0.37274416376166375  1.0000
  H   H568      1.0  0.7397896102337116  0.27363651958332724  0.3929557549418593  1.0000
  C   C739      1.0  0.7807775812933402  0.39325337354185225  0.3770818946794077  1.0000
  C   C740      1.0  0.7499070479775866  0.39475495325084636  0.3735629485672145  1.0000
  C   C741      1.0  0.7447306511483047  0.4137904215537988  0.3520083877679891  1.0000
  C   C742      1.0  0.7689932480500893  0.4308673165986117  0.3352507275293228  1.0000
  C   C743      1.0  0.7992489291046293  0.4294471431077799  0.33962909292873183  1.0000
  C   C744      1.0  0.8052201452283251  0.4109676718498124  0.3607102620165594  1.0000
  C   C745      1.0  0.7225684873523919  0.37871872282519525  0.3953592845323469  1.0000
  C   C746      1.0  0.727120521276644  0.4099264413655107  0.4150141833137313  1.0000
  C   C747      1.0  0.7097139041018133  0.4322754017546429  0.4119869144296851  1.0000
  C   C748      1.0  0.7121410762871031  0.45745914681233785  0.4299595456701364  1.0000
  C   C749      1.0  0.7343559979687297  0.4632127611014444  0.4500654871980028  1.0000
  C   C750      1.0  0.7541888623412479  0.44374414498182874  0.4518432457708487  1.0000
  C   C751      1.0  0.7506580894955551  0.4174720016116191  0.43447810003128984  1.0000
  C   C752      1.0  0.6805829721884645  0.34916108394488793  0.3585972689699768  1.0000
  C   C753      1.0  0.649830908456724  0.336068249644971  0.3499868223051529  1.0000
  C   C754      1.0  0.6244310673552321  0.3360349943675679  0.3667647997846517  1.0000
  C   C755      1.0  0.6314297603559276  0.3515623659058254  0.3915762142893308  1.0000
  C   C756      1.0  0.6618154748912973  0.36339367624164015  0.4005544030132235  1.0000
  C   C757      1.0  0.6873292008073565  0.36330880247933744  0.38413807242054354  1.0000
  C   C758      1.0  0.5881275869414759  0.3209799649360514  0.3577601986476768  1.0000
  C   C759      1.0  0.5790401494289802  0.40845711798897316  0.3153174825485328  1.0000
  C   C760      1.0  0.5873598678840429  0.3843073405241461  0.30079675052552746  1.0000
  C   C761      1.0  0.5899609812107005  0.3564884623012908  0.31390543431067236  1.0000
  C   C762      1.0  0.5852169133332653  0.35240407667813106  0.34158767494498715  1.0000
  C   C763      1.0  0.5796959186098056  0.3784864442659736  0.3557528552534233  1.0000
  C   C764      1.0  0.5764956412387181  0.40601309918793704  0.34303426249226293  1.0000
  C   C765      1.0  0.5618744492472224  0.3089538491006454  0.3813850862877365  1.0000
  C   C766      1.0  0.5680105639750637  0.2934843299991451  0.4045589311813141  1.0000
  C   C767      1.0  0.5474904847356699  0.28677482339712085  0.42613990439362176  1.0000
  C   C768      1.0  0.5191325505321966  0.2935482671646826  0.4247075389149288  1.0000
  C   C769      1.0  0.510826912734032  0.30553552341353457  0.4008307174885458  1.0000
  C   C770      1.0  0.5318309456469485  0.3129828916612197  0.37934929875631745  1.0000
  C   C771      1.0  0.5539835767358873  0.2771994579064756  0.32452322436974973  1.0000
  C   C772      1.0  0.5457284915294346  0.24706036704458365  0.31152425368510045  1.0000
  C   C773      1.0  0.5623962768667901  0.22482570599503335  0.3162825514880777  1.0000
  C   C774      1.0  0.5875999017910088  0.23359687417849664  0.33369239515746807  1.0000
  C   C775      1.0  0.5959112002319983  0.2636358057620718  0.34648209826154236  1.0000
  C   C776      1.0  0.5797607208417096  0.2865445715930197  0.34192697286689033  1.0000
  H   H569      1.0  0.7867347456183577  0.3797354958577496  0.39393707767407016  1.0000
  H   H570      1.0  0.7212759842246178  0.41531621342817465  0.3479794789108995  1.0000
  H   H571      1.0  0.7640019370981113  0.44441629086773005  0.3180440562682576  1.0000
  H   H572      1.0  0.8291043933224135  0.41023042209637184  0.3645705377747391  1.0000
  H   H573      1.0  0.6928531817428862  0.4291473399624169  0.3957981369343294  1.0000
  H   H574      1.0  0.6969175987444686  0.47307784507389844  0.42741989056607077  1.0000
  H   H575      1.0  0.7718735233740193  0.4480146864267894  0.4675911391401386  1.0000
  H   H576      1.0  0.7655485733015555  0.4015522823964661  0.43709089720235256  1.0000
  H   H577      1.0  0.6999629760488182  0.3485153367932487  0.34538090380841957  1.0000
  H   H578      1.0  0.6457447404321652  0.32551493271101795  0.3298869759495362  1.0000
  H   H579      1.0  0.6131442218075817  0.354312192468882  0.405129845648708  1.0000
  H   H580      1.0  0.6655187809534531  0.3737007580055652  0.42069894729867163  1.0000
  H   H581      1.0  0.5916796132100577  0.3866696545421001  0.279185301451971  1.0000
  H   H582      1.0  0.5969061286131704  0.33815231820320246  0.3021844180743889  1.0000
  H   H583      1.0  0.5769112898749813  0.37763491601156857  0.37749027122014145  1.0000
  H   H584      1.0  0.5705850222639881  0.42500038067095935  0.3547796594175454  1.0000
  H   H585      1.0  0.5901025121820774  0.2877708990565864  0.40636107044315906  1.0000
  H   H586      1.0  0.553719421719352  0.27523432393624986  0.4440028225335774  1.0000
  H   H587      1.0  0.9887993195456232  0.3090682480240347  0.40339068983344395  1.0000
  H   H588      1.0  0.5248124744093687  0.32317760844896726  0.36109628959237733  1.0000
  H   H589      1.0  0.5398867513119012  0.2937073494305004  0.32078688378064846  1.0000
  H   H590      1.0  0.5255469439016873  0.24102115583337874  0.2980945574948017  1.0000
  H   H591      1.0  0.6011506316628835  0.21665590786287853  0.33772739918680744  1.0000
  H   H592      1.0  0.6158408072322618  0.269382920279606  0.3601291889287492  1.0000
  C   C777      1.0  0.7449618078353021  0.3176144455370553  0.9737139255191601  1.0000
  C   C778      1.0  0.7495364623747197  0.3205378642190984  0.0011755332056049604  1.0000
  C   C779      1.0  0.7399094252020056  0.34379866046298047  0.015457824121923902  1.0000
  C   C780      1.0  0.7270218552479076  0.3658216675164271  0.0022017387545390315  1.0000
  C   C781      1.0  0.7198713283252659  0.3601013480079027  0.9749085792801125  1.0000
  C   C782      1.0  0.7292263386041327  0.336753272453304  0.9607047962140947  1.0000
  H   H593      1.0  0.7609914329976583  0.30457075159097785  0.011404900286170219  1.0000
  H   H594      1.0  0.7441614188652717  0.34605952742535845  0.037075510588415954  1.0000
  H   H595      1.0  0.7075458678370945  0.3746715898481109  0.9639819671603809  1.0000
  H   H596      1.0  0.7244169623175635  0.33361961685093966  0.9391827430002013  1.0000
  C   C783      1.0  0.7416971099661329  0.4378701038427892  0.9784844136666369  1.0000
  C   C784      1.0  0.7217179764492282  0.4277950518492284  0.0008012368046436918  1.0000
  C   C785      1.0  0.7022083269120589  0.4470504893515225  0.00780893151398085  1.0000
  C   C786      1.0  0.6999045217520977  0.472437146125597  0.9915890340036153  1.0000
  C   C787      1.0  0.7182713068865498  0.48069993967394675  0.9686894718612767  1.0000
  C   C788      1.0  0.7391124065879556  0.46333433525056583  0.9621534154854535  1.0000
  C   C789      1.0  0.7203301776978382  0.3955458406574903  0.018317638307028407  1.0000
  C   C790      1.0  0.7472574719408522  0.4125562899310238  0.039915454511986255  1.0000
  C   C791      1.0  0.7411335329254739  0.42815995029299936  0.0628739366527391  1.0000
  C   C792      1.0  0.7650667658805823  0.4506068378334305  0.07677804041647736  1.0000
  C   C793      1.0  0.7963208232904397  0.45630865569069917  0.06924461068818553  1.0000
  C   C794      1.0  0.8031243658532342  0.4373992232192876  0.04902042281867385  1.0000
  C   C795      1.0  0.7788922127814181  0.41722350413120307  0.033923697018066405  1.0000
  C   C796      1.0  0.6598953070115241  0.37375688541494584  0.011503256049040471  1.0000
  C   C797      1.0  0.6294608395979453  0.35936758156742393  0.019818330666641175  1.0000
  C   C798      1.0  0.6222243769444983  0.3441794924383564  0.04490232127432943  1.0000
  C   C799      1.0  0.6476494504340642  0.344966454326592  0.06168822247775297  1.0000
  C   C800      1.0  0.6784329966794345  0.36214891863391263  0.05424032833336608  1.0000
  C   C801      1.0  0.6852995492202304  0.3764934296987431  0.02873447053703129  1.0000
  C   C802      1.0  0.5852139455877269  0.3306714210564704  0.05422488723033336  1.0000
  C   C803      1.0  0.5726693388976795  0.41892365689060895  0.09448410945720592  1.0000
  C   C804      1.0  0.5703667667412635  0.41540938498674723  0.06685692854554724  1.0000
  C   C805      1.0  0.5737768474400836  0.38755122117085733  0.05436792060579433  1.0000
  C   C806      1.0  0.5804585726604712  0.36252966045761953  0.06925741054991003  1.0000
  C   C807      1.0  0.585691639411852  0.36810636353566384  0.09705383407770364  1.0000
  C   C808      1.0  0.5826278109608429  0.3962687735639416  0.1092649021628676  1.0000
  C   C809      1.0  0.5751538824893845  0.2966063752326755  0.07142729187082367  1.0000
  C   C810      1.0  0.588662776284026  0.27166727396920765  0.06555012361519925  1.0000
  C   C811      1.0  0.5778888361230643  0.2404249497533698  0.07694890841187889  1.0000
  C   C812      1.0  0.5531408472912062  0.2332174894735268  0.0949071144113391  1.0000
  C   C813      1.0  0.5390189266339608  0.2573064488020802  0.10107867948662679  1.0000
  C   C814      1.0  0.5494803783780434  0.28831950784094423  0.08929285125208755  1.0000
  C   C815      1.0  0.531075734518457  0.3207801078216162  0.02976435147483196  1.0000
  C   C816      1.0  0.5119424937487335  0.3131806461259762  0.0073311919130448645  1.0000
  C   C817      1.0  0.5208416596199418  0.2982498224879643  0.9852378645193681  1.0000
  C   C818      1.0  0.5483729544156518  0.2897723037168386  0.9863817251782392  1.0000
  C   C819      1.0  0.5685907220232602  0.30010195318298444  0.007881260891344636  1.0000
  C   C820      1.0  0.561170706985862  0.31725849396877226  0.02963371161627883  1.0000
  H   H597      1.0  0.7593705884114815  0.42577853551162115  0.9734335475956714  1.0000
  H   H598      1.0  0.6874567349512153  0.4416538855792164  0.025807771995106112  1.0000
  H   H599      1.0  0.6841115163497794  0.48665985655214705  0.9970543717875645  1.0000
  H   H600      1.0  0.7543477738271261  0.46979082049854315  0.9445607166485706  1.0000
  H   H601      1.0  0.7169231731716131  0.425761175561002  0.06842867029635134  1.0000
  H   H602      1.0  0.7592426944360651  0.46504926815399744  0.09298124315282408  1.0000
  H   H603      1.0  0.8274710581111749  0.4407536926777505  0.0431259849083418  1.0000
  H   H604      1.0  0.7854321532485659  0.4059909147870305  0.016083798311973988  1.0000
  H   H605      1.0  0.6632829808031352  0.38404341573688555  0.9911948795314643  1.0000
  H   H606      1.0  0.6108406035756632  0.3602752349625702  0.005940131384964399  1.0000
  H   H607      1.0  0.6432968953226785  0.3336224627139075  0.08157534732185308  1.0000
  H   H608      1.0  0.6973119264355653  0.3631743754847552  0.06830717319617284  1.0000
  H   H609      1.0  0.5643108240562802  0.43393649935599105  0.054607054530393155  1.0000
  H   H610      1.0  0.5716416768012186  0.3855571824572364  0.032509413883714366  1.0000
  H   H611      1.0  0.5926187642856743  0.35054475367820775  0.10968892297904241  1.0000
  H   H612      1.0  0.5867474367493996  0.400063503787809  0.1308127582726183  1.0000
  H   H613      1.0  0.6078004346395756  0.27617873250485026  0.05106819752218401  1.0000
  H   H614      1.0  0.5892481634077783  0.2216710653721738  0.07215444592021972  1.0000
  H   H615      1.0  0.5197041412009163  0.25205445664352466  0.11551265689127728  1.0000
  H   H616      1.0  0.5364217058036054  0.3057105611501122  0.09360010630858279  1.0000
  H   H617      1.0  0.5223444829867394  0.3309180626593053  0.04718557279908855  1.0000
  H   H618      1.0  0.9832458501705914  0.3154051789539743  0.012857115709156585  1.0000
  H   H619      1.0  0.5552544686398347  0.27670353450445767  0.9697317463159854  1.0000
  H   H620      1.0  0.5907045067270642  0.29414879649379805  0.007925775966008698  1.0000
  C   C821      1.0  0.8768391339274824  0.49516084559283013  0.3122150398734063  1.0000
  C   C822      1.0  0.8804382041695862  0.015229112997136722  0.285969228165951  1.0000
  C   C823      1.0  0.9092140099536883  0.027112153918448276  0.27306778023729783  1.0000
  C   C824      1.0  0.9360833070410296  0.018740898303111243  0.2815055303550453  1.0000
  C   C825      1.0  0.9320973157880049  0.5001475846730404  0.30928529374535624  1.0000
  C   C826      1.0  0.9027403271808659  0.4866504567435165  0.3210835154968033  1.0000
  H   H621      1.0  0.861089288309646  0.02415509910752531  0.27979685040103  1.0000
  H   H622      1.0  0.9114041530711356  0.044730976092505  0.2567042744707825  1.0000
  H   H623      1.0  0.9514277866152947  0.49397167226358  0.3187023348712314  1.0000
  H   H624      1.0  0.9004289514262307  0.46990061068509836  0.3381317122793748  1.0000
  C   C827      1.0  0.5060610585398715  0.5047160034996263  0.3038077656169076  1.0000
  C   C828      1.0  0.9921727565137153  0.010519534362609372  0.27235667680815945  1.0000
  C   C829      1.0  0.4904356958572525  0.4787376494020848  0.26153165089259034  1.0000
  C   C830      1.0  0.5041694982194149  0.45460743334898596  0.2677466948632596  1.0000
  C   C831      1.0  0.5193002770041417  0.4553469117215474  0.292174113516204  1.0000
  C   C832      1.0  0.5200435731325547  0.48067471845838106  0.31017518889382084  1.0000
  C   C833      1.0  0.9709377217873965  0.03537644553663615  0.2670274645377882  1.0000
  C   C834      1.0  0.48930109712750053  0.06658198071162517  0.284327595106683  1.0000
  C   C835      1.0  0.5220189157732079  0.07771874866185592  0.28747473571164106  1.0000
  C   C836      1.0  0.5373522523469942  0.10841315178709736  0.29819411197488105  1.0000
  C   C837      1.0  0.5202105152463443  0.12899738824374174  0.3063027227911416  1.0000
  C   C838      1.0  0.4882038771768231  0.11936663239485237  0.30164397946824373  1.0000
  C   C839      1.0  0.9688723599572409  0.09398357736304828  0.28490054129816017  1.0000
  C   C840      1.0  0.9455376349065185  0.01664172143716284  0.22041158717164366  1.0000
  C   C841      1.0  0.9433953069340003  0.01737646265025207  0.1928144757764171  1.0000
  C   C842      1.0  0.9634464286557121  0.042572100977684345  0.1776671600461367  1.0000
  C   C843      1.0  0.9877519384458827  0.06530514688321035  0.1916216505671396  1.0000
  C   C844      1.0  0.9900709467147999  0.06441559370938675  0.21941401064676672  1.0000
  C   C845      1.0  0.9683307015608204  0.040462339072359556  0.23471695644182428  1.0000
  C   C846      1.0  0.9629784001989589  0.043112830475931986  0.14487716506652515  1.0000
  C   C847      1.0  0.5223921296934594  0.4637694615346327  0.13763894484752992  1.0000
  C   C848      1.0  0.9938122686351482  0.4646626371466173  0.14428633970311533  1.0000
  C   C849      1.0  0.9755974036888628  0.4853129827451389  0.14840545710950137  1.0000
  C   C850      1.0  0.9851969232131663  0.019287888953739233  0.13955262576154542  1.0000
  C   C851      1.0  0.5129345539937031  0.032227142098372304  0.13449424231147175  1.0000
  C   C852      1.0  0.5295696187716545  0.012818173570005203  0.1232047642704711  1.0000
  C   C853      1.0  0.9750888120515784  0.0801576903902865  0.13260636429331357  1.0000
  C   C854      1.0  0.9652367648779404  0.10594522203309989  0.14313638387199443  1.0000
  C   C855      1.0  0.9756842124622164  0.13756315597364469  0.13227803768145996  1.0000
  C   C856      1.0  0.9974855236119633  0.14469318243104848  0.11146586886225501  1.0000
  C   C857      1.0  0.00560366323788018  0.11863880375929185  0.09987427345007473  1.0000
  C   C858      1.0  0.9946967978717894  0.08716949299765005  0.1101862890346226  1.0000
  C   C859      1.0  0.9251684453966182  0.015234934347308125  0.10583616459997075  1.0000
  C   C860      1.0  0.8956146349335703  0.9982420891874919  0.09589697038469969  1.0000
  C   C861      1.0  0.8752365979992607  0.49706715513298727  0.11060888764393913  1.0000
  C   C862      1.0  0.8723277713814426  0.013348428291181094  0.13517873015511953  1.0000
  C   C863      1.0  0.9017827135806297  0.031155386044827663  0.14439564645879432  1.0000
  C   C864      1.0  0.9290288832674104  0.0299430635821312  0.13120935081366916  1.0000
  H   H625      1.0  0.5082049944842761  0.019903853316801525  0.3170871142250457  1.0000
  H   H626      1.0  0.9800467779809785  0.4842792886926293  0.23916236873598065  1.0000
  H   H627      1.0  0.501910822798585  0.43450565269228514  0.2535124359359928  1.0000
  H   H628      1.0  0.5312710397963805  0.48212764928883806  0.32976100905637457  1.0000
  H   H629      1.0  0.5364729037794138  0.06234119408510908  0.28153803794037735  1.0000
  H   H630      1.0  0.5627057660049661  0.11605397133548533  0.3011929367217617  1.0000
  H   H631      1.0  0.4741915158859207  0.13547421957415828  0.3070950951836101  1.0000
  H   H632      1.0  0.9439775511417602  0.08776845776317492  0.28026008349201154  1.0000
  H   H633      1.0  0.9271686054190897  0.49889694451738514  0.2343776585199211  1.0000
  H   H634      1.0  0.9250285757205169  0.5025972783063171  0.18640093236281405  1.0000
  H   H635      1.0  0.5074270720379094  0.0813035935438279  0.18537958466616303  1.0000
  H   H636      1.0  0.5105601019555184  0.0797976444662531  0.23401601163310218  1.0000
  H   H637      1.0  0.9826410533533347  0.4382225431638081  0.14383021764642517  1.0000
  H   H638      1.0  0.9503634280627923  0.4741612390306731  0.15085002752647075  1.0000
  H   H639      1.0  0.5251974000117708  0.058336150014859756  0.13722284775527982  1.0000
  H   H640      1.0  0.5537391209135182  0.02458713865823713  0.11688589919914762  1.0000
  H   H641      1.0  0.949424968680727  0.10163698027800609  0.16040014657979895  1.0000
  H   H642      1.0  0.9670336289609692  0.1568067853651218  0.14055934504479703  1.0000
  H   H643      1.0  0.021314117506481132  0.12268701542780415  0.08248312164225027  1.0000
  H   H644      1.0  0.0024122536377288615  0.0680901102872628  0.10026741206018407  1.0000
  H   H645      1.0  0.9462394078715101  0.015570087412290181  0.09449569028448047  1.0000
  H   H646      1.0  0.9025613194453931  0.47907630097994924  0.08174012014500484  1.0000
  H   H647      1.0  0.8516116957853833  0.01260673071160783  0.14723518403754796  1.0000
  H   H648      1.0  0.9030506700121961  0.044293532757276925  0.16330855960497484  1.0000
  C   C865      1.0  0.010973280308206204  0.18013003040163209  0.09928649567278978  1.0000
  C   C866      1.0  0.5420737766018279  0.19816761730548946  0.10743919490165695  1.0000
  H   H649      1.0  0.507746025481343  0.17549691794234837  0.07711693199356387  1.0000
  H   H650      1.0  0.9917862600064321  0.19172166890411185  0.09871537803298751  1.0000
  H   H651      1.0  0.5433760117735641  0.20049547642068588  0.1297780011970178  1.0000
  H   H652      1.0  0.5586262505049934  0.18373050093759347  0.10263416744476488  1.0000
  C   C867      1.0  0.8238757547380707  0.4846043255217498  0.08103389285366629  1.0000
  C   C868      1.0  0.8443254855449607  0.47186238922825874  0.10120931934517992  1.0000
  H   H653      1.0  0.8194464025269571  0.001579120548700975  0.07896275332319873  1.0000
  H   H654      1.0  0.7991893469125873  0.9935264634572255  0.11030128461773471  1.0000
  H   H655      1.0  0.8502229594165588  0.4510194702085059  0.09122380182081069  1.0000
  H   H656      1.0  0.8300512443209231  0.4603371357362937  0.11898020038416425  1.0000
  C   C869      1.0  0.5630900885793533  0.4476537253434675  0.10712224594466957  1.0000
  C   C870      1.0  0.539907024366267  0.4380137690164737  0.13143812294544338  1.0000
  H   H657      1.0  0.5846121900128235  0.4674320231684984  0.11319649143636945  1.0000
  H   H658      1.0  0.5522609334951181  0.4593460492094386  0.09126768706100896  1.0000
  H   H659      1.0  0.5225369122594095  0.4135809220664511  0.12716073423297197  1.0000
  H   H660      1.0  0.5526269449633614  0.43374437200668486  0.14978377872757986  1.0000
  C   C871      1.0  0.8448006807079909  0.482685925043342  0.3272802739507233  1.0000
  C   C872      1.0  0.8261560508761351  0.44655315404185586  0.3203155237933339  1.0000
  H   H661      1.0  0.8494425175888639  0.4844406320852429  0.3493366705985121  1.0000
  H   H662      1.0  0.8298923246286531  0.9958791448304464  0.3173370162872858  1.0000
  H   H663      1.0  0.8170374762117849  0.4457638365350132  0.2993643850468345  1.0000
  H   H664      1.0  0.8427774466171613  0.43148890704094245  0.3193687403705382  1.0000
  C   C873      1.0  0.5537293104753453  0.1906453725235677  0.30305399598202093  1.0000
  C   C874      1.0  0.5347128187160421  0.16201421785121237  0.32152643134695236  1.0000
  H   H665      1.0  0.575436284027367  0.18497983912249413  0.29627413271620745  1.0000
  H   H666      1.0  0.5402555106240526  0.19122725365914628  0.28433369027893274  1.0000
  H   H667      1.0  0.5154019007331904  0.16989762357440066  0.33106537591782265  1.0000
  H   H668      1.0  0.5487465292876745  0.15787426430908358  0.3389240846718432  1.0000
  C   C875      1.0  0.531658826615096  0.4261032153168958  0.300624053978451  1.0000
  C   C876      1.0  0.5682828638823239  0.43582059160476044  0.301670391881326  1.0000
  H   H669      1.0  0.5203076472973835  0.4160403631117637  0.3202180010373378  1.0000
  H   H670      1.0  0.523424092538012  0.4051720096503668  0.28617849574652593  1.0000
  H   H671      1.0  0.5788997120362985  0.44115181542763193  0.2811276296755603  1.0000
  H   H672      1.0  0.5772652818529816  0.4593085213500402  0.31293833364704415  1.0000
  C   C877      1.0  0.7539466348888372  0.02575401323607662  0.4638426082065377  1.0000
  C   C878      1.0  0.7381914776902366  0.9898626846060427  0.47348313898157074  1.0000
  H   H673      1.0  0.7422322218535299  0.029528439068173637  0.4447647190647971  1.0000
  H   H674      1.0  0.778699109428518  0.028546152080969358  0.45742236010345994  1.0000
  H   H675      1.0  0.7131649692774822  0.9868737255453385  0.47865387677344823  1.0000
  H   H676      1.0  0.7491742992607414  0.9848230789786409  0.4924269343338167  1.0000
  C   C879      1.0  0.9833030641247004  0.2563578726087558  0.45869218765549274  1.0000
  C   C880      1.0  0.49717461988883693  0.2873025459803137  0.44932390790761567  1.0000
  H   H677      1.0  0.9992691991291172  0.24077202432275122  0.4577108649232818  1.0000
  H   H678      1.0  0.9668170330087702  0.24771788959194754  0.4415038019111769  1.0000
  H   H679      1.0  0.9876436289523837  0.3088194987195035  0.4543707105304148  1.0000
  H   H680      1.0  0.5122593657794985  0.2930328565889024  0.46762364672547063  1.0000
  C   C881      1.0  0.7320590013055901  0.2546231621223361  0.4462397507492384  1.0000
  C   C882      1.0  0.7629384018026725  0.2614366249592672  0.46263170065291925  1.0000
  H   H681      1.0  0.7304273441906035  0.23471367482675262  0.4312049925331702  1.0000
  H   H682      1.0  0.711659172422896  0.24428825234829996  0.4600209352059399  1.0000
  H   H683      1.0  0.7658945026198024  0.28360350464020845  0.47560832237265277  1.0000
  H   H684      1.0  0.7835083874185391  0.2686261669157926  0.44853356723923044  1.0000
  C   C883      1.0  0.9203746237153136  0.06953634563147484  0.6062745933388686  1.0000
  C   C884      1.0  0.9367872886038915  0.10648677316098298  0.6133368662522541  1.0000
  H   H685      1.0  0.9166370630662233  0.06617541338187909  0.5840901980738349  1.0000
  H   H686      1.0  0.8961292273992022  0.06176235187877472  0.6150292924136035  1.0000
  H   H687      1.0  0.9623104182168837  0.11243950042556818  0.6083185077666206  1.0000
  H   H688      1.0  0.935802314992507  0.10915821464751378  0.6356553553067825  1.0000
  C   C885      1.0  0.6482434537929654  0.0676385302081708  0.6100089022038866  1.0000
  C   C886      1.0  0.6710563448783513  0.10204153002269252  0.6171930785622673  1.0000
  H   H689      1.0  0.6623632420040065  0.04990057618118139  0.6100129656520531  1.0000
  H   H690      1.0  0.6400856411464747  0.0676480503480936  0.5887225289836505  1.0000
  H   H691      1.0  0.6826132425399378  0.10052519219916989  0.6368418821714019  1.0000
  H   H692      1.0  0.6585666941694309  0.1209170725719312  0.6200293653824878  1.0000
  C   C887      1.0  0.9474029364194752  0.3432782545873331  0.6178940233709894  1.0000
  C   C888      1.0  0.9621832137017695  0.3715440916674126  0.5973390708207242  1.0000
  H   H693      1.0  0.9636254415630602  0.34278688699875676  0.6348833001551465  1.0000
  H   H694      1.0  0.9265374831795983  0.34766700689177304  0.6277519486229304  1.0000
  H   H695      1.0  0.9438230190950729  0.3724904783450262  0.5823713594994033  1.0000
  H   H696      1.0  0.980945333056847  0.36499694040348807  0.5856668159624389  1.0000
  C   C889      1.0  0.9733470367619881  0.2675568263500655  0.9607088596622612  1.0000
  C   C890      1.0  0.9992565280838014  0.30096357037513183  0.9619827506624604  1.0000
  H   H697      1.0  0.9563077743097468  0.26565614938343673  0.9776920412741684  1.0000
  H   H698      1.0  0.9837957420621904  0.24714928845413062  0.9643761216325317  1.0000
  H   H699      1.0  0.5167280506244817  0.29304144937391985  0.9414846863865263  1.0000
  H   H700      1.0  0.9881698095089048  0.3212460815569466  0.960586956217266  1.0000
  C   C891      1.0  0.751204133176965  0.041557621527648025  0.9595020155568091  1.0000
  C   C892      1.0  0.7235648713385731  0.010254836088787652  0.9550545715385695  1.0000
  H   H701      1.0  0.7739284954320153  0.0355659265303354  0.9592744624594848  1.0000
  H   H702      1.0  0.7496573045055402  0.051700912714960676  0.9799878894882437  1.0000
  H   H703      1.0  0.7010891431073589  0.016556515917259304  0.9567530928721685  1.0000
  H   H704      1.0  0.7241229622598561  0.0018686006749746476  0.9338007059036654  1.0000
  C   C893      1.0  0.7269011366723894  0.2614803214884532  0.9501723385665138  1.0000
  C   C894      1.0  0.755225340344517  0.2916185879882232  0.9576186073316341  1.0000
  H   H705      1.0  0.7089600859079077  0.26980508191912256  0.939020205073541  1.0000
  H   H706      1.0  0.7144810749021135  0.2497030723054198  0.9688946759936853  1.0000
  H   H707      1.0  0.7732376445078893  0.28359398997082014  0.9689353104753503  1.0000
  H   H708      1.0  0.7671948453830186  0.30318536157884873  0.9386748119793881  1.0000
  C   C895      1.0  0.926991172201938  0.08567504600315391  0.812464111927745  1.0000
  C   C896      1.0  0.9404639875499453  0.12314995673334844  0.805342919015945  1.0000
  H   H709      1.0  0.9027914770212799  0.07562864463907874  0.8042417245628223  1.0000
  H   H710      1.0  0.9235305774346827  0.08187809145927658  0.8346139678833633  1.0000
  H   H711      1.0  0.9384094929867113  0.1265091029065814  0.7832194754734091  1.0000
  H   H712      1.0  0.9662301399454695  0.13171959917473977  0.8093860499416176  1.0000
  C   C897      1.0  0.6397332367612406  0.06374487675825759  0.8161882621723466  1.0000
  C   C898      1.0  0.6680909814290774  0.09154197134698705  0.8045688321402259  1.0000
  H   H713      1.0  0.6327252206676599  0.07055513690411082  0.8364262657656246  1.0000
  H   H714      1.0  0.6487814583741471  0.0424861376665508  0.8205808496403385  1.0000
  H   H715      1.0  0.6595745627389707  0.1113635000492134  0.7955764213477504  1.0000
  H   H716      1.0  0.6794260564978947  0.08148411041750665  0.7879574560355537  1.0000
  C   C899      1.0  0.9461284155483731  0.3834735338717236  0.8193313393291384  1.0000
  C   C900      1.0  0.9303198282593778  0.35371387762014095  0.8013404225719377  1.0000
  H   H717      1.0  0.964925705724749  0.3768308816923968  0.8306602328173541  1.0000
  H   H718      1.0  0.9291026382827855  0.38577031612466695  0.835134089248676  1.0000
  H   H719      1.0  0.9467906839928324  0.35281992588522515  0.7845847940573547  1.0000
  H   H720      1.0  0.9093712424079203  0.3570469630526672  0.7910436449180143  1.0000
  C   C901      1.0  0.9105155567637482  0.63715424534337  0.8252314660669035  1.0000
  C   C902      1.0  0.9108831132370435  0.6394522175332419  0.8530924984205445  1.0000
  C   C903      1.0  0.9040553753909877  0.6655999336102629  0.8656810608403768  1.0000
  C   C904      1.0  0.9001362658725124  0.6920552230262765  0.8509185536514644  1.0000
  C   C905      1.0  0.8999157945806021  0.6894049423298393  0.8228787295784972  1.0000
  C   C906      1.0  0.9044945956863183  0.6621585499936756  0.8103023575031644  1.0000
  H   H721      1.0  0.9162320707395206  0.6203886941829335  0.8652097008530623  1.0000
  H   H722      1.0  0.9026383545639229  0.6657122725415556  0.8875688243892556  1.0000
  H   H723      1.0  0.8952022279596115  0.7083631848423728  0.8103186112958304  1.0000
  H   H724      1.0  0.9040485202335992  0.660910463704577  0.7883678643003708  1.0000
  C   C907      1.0  0.9284229626099652  0.7678876434541569  0.8338642616966432  1.0000
  C   C908      1.0  0.9030686315212166  0.7580868244774884  0.8517921950072629  1.0000
  C   C909      1.0  0.8865497828948034  0.7810647703970851  0.8569873134881395  1.0000
  C   C910      1.0  0.8948195799050753  0.8117361978314644  0.8448193179535405  1.0000
  C   C911      1.0  0.9198843552528077  0.8203281599318868  0.8271290963606613  1.0000
  C   C912      1.0  0.9355981331522232  0.7979325199045109  0.8210583047999029  1.0000
  C   C913      1.0  0.8942865410472679  0.7228368382698509  0.8667395890877513  1.0000
  C   C914      1.0  0.9170157968625141  0.734605631231123  0.8923393125367324  1.0000
  C   C915      1.0  0.9087424251613241  0.7521699463060357  0.9133656250743121  1.0000
  C   C916      1.0  0.9270179729864457  0.7610888503387808  0.9359116672261648  1.0000
  C   C917      1.0  0.9540809586976429  0.7517582554701586  0.9385752574993087  1.0000
  C   C918      1.0  0.9641475146413496  0.7363626692181725  0.9171913615230766  1.0000
  C   C919      1.0  0.946386602970121  0.7290692204201246  0.8939911042164167  1.0000
  C   C920      1.0  0.8349295861777133  0.7073555108103016  0.8553314583602887  1.0000
  C   C921      1.0  0.8032875686696717  0.693599443976757  0.8610568568268943  1.0000
  C   C922      1.0  0.7931115178334769  0.6775516876015684  0.8853562768625937  1.0000
  C   C923      1.0  0.8162451562783571  0.6774781652720451  0.9043366432483383  1.0000
  C   C924      1.0  0.8477450155190971  0.69118721129584  0.8985543565074017  1.0000
  C   C925      1.0  0.8578971651654619  0.7076049835245436  0.8743483957795317  1.0000
  C   C926      1.0  0.7570119135233512  0.6610682532375703  0.8926440711492202  1.0000
  C   C927      1.0  0.7312137912030818  0.7374349701238401  0.9382461181978219  1.0000
  C   C928      1.0  0.7334247945940341  0.7392041256516361  0.9101920720562718  1.0000
  C   C929      1.0  0.7427491839573771  0.7155167692966381  0.8963316503603235  1.0000
  C   C930      1.0  0.7502631619138489  0.690184252870201  0.9099157575809496  1.0000
  C   C931      1.0  0.7532474782230848  0.6926111163512062  0.9378763444146699  1.0000
  C   C932      1.0  0.7426112959698011  0.7149750217106009  0.9520455881712726  1.0000
  C   C933      1.0  0.7511098050039038  0.6274526460836287  0.9092838913910579  1.0000
  C   C934      1.0  0.7701663847209881  0.6070038854619396  0.905783230795614  1.0000
  C   C935      1.0  0.7669837557446175  0.5803445586792331  0.9226709213756085  1.0000
  C   C936      1.0  0.7439986234853433  0.573012001296051  0.9426448008380633  1.0000
  C   C937      1.0  0.7228483265111031  0.5910962715162948  0.9442722118287487  1.0000
  C   C938      1.0  0.7261146453633526  0.6175287122047838  0.9275775350366631  1.0000
  C   C939      1.0  0.7014770887686668  0.6446126742021596  0.871573060681809  1.0000
  C   C940      1.0  0.6800928264738905  0.6300802653323085  0.852066477758502  1.0000
  C   C941      1.0  0.689408575655333  0.6147961144871334  0.8301096355907926  1.0000
  C   C942      1.0  0.7205101015538647  0.6159597762824318  0.8272449046334067  1.0000
  C   C943      1.0  0.742389887905108  0.6319559740922127  0.8461257165390718  1.0000
  C   C944      1.0  0.7334496013123889  0.6473914159198813  0.8681739862905276  1.0000
  H   H725      1.0  0.9428482081894975  0.7518264926210874  0.8295265307788992  1.0000
  H   H726      1.0  0.8665724088775546  0.7751216187064138  0.8707786565652572  1.0000
  H   H727      1.0  0.8812101412427249  0.8286004594614513  0.8490839068042874  1.0000
  H   H728      1.0  0.9547820601930732  0.804626763016252  0.8064563038135674  1.0000
  H   H729      1.0  0.8869181545051603  0.7586684852082255  0.9123456995845194  1.0000
  H   H730      1.0  0.9199262083509879  0.7749877289627561  0.9518952405891119  1.0000
  H   H731      1.0  0.9858580719217466  0.7298135085443206  0.9184632207991926  1.0000
  H   H732      1.0  0.9557397999590546  0.7181804926284606  0.8772923639761646  1.0000
  H   H733      1.0  0.84143172770499  0.7185324738288361  0.8355810685469915  1.0000
  H   H734      1.0  0.7863637389172359  0.695535698493341  0.8459225441307465  1.0000
  H   H735      1.0  0.8099955952470304  0.6666261839098573  0.9242617613327951  1.0000
  H   H736      1.0  0.8646434949271088  0.6885555997097705  0.9135200361046394  1.0000
  H   H737      1.0  0.7262952903813437  0.7578741307920674  0.898983050288968  1.0000
  H   H738      1.0  0.7430323380494376  0.7158870317117811  0.8743341737109491  1.0000
  H   H739      1.0  0.7622796033777484  0.6752042769037377  0.948951272392479  1.0000
  H   H740      1.0  0.743714126427141  0.7151541414527383  0.9740247793038979  1.0000
  H   H741      1.0  0.7887742126554458  0.6125076267563928  0.8904660629319736  1.0000
  H   H742      1.0  0.7830872553215973  0.5657006744058924  0.9202653600610375  1.0000
  H   H743      1.0  0.7038077574368082  0.5847019926931293  0.9590936390160754  1.0000
  H   H744      1.0  0.7087570596106656  0.6309107829405147  0.9290545984451878  1.0000
  H   H745      1.0  0.693244478102891  0.6548613771097128  0.8892998533081866  1.0000
  H   H746      1.0  0.6556675618653903  0.6296148737732428  0.8542932473537467  1.0000
  H   H747      1.0  0.7279973176813934  0.6031817187529329  0.8106233699083182  1.0000
  H   H748      1.0  0.7666332843994956  0.6318067950186301  0.8433849207507643  1.0000
  C   C945      1.0  0.9405200860149754  0.6365687254064875  0.5888769400139777  1.0000
  C   C946      1.0  0.9254654182737692  0.6530632879036586  0.6053481271569054  1.0000
  C   C947      1.0  0.913643328669652  0.676955632630322  0.5947973839925754  1.0000
  C   C948      1.0  0.9165586311497189  0.6845416468301199  0.5672736178367542  1.0000
  C   C949      1.0  0.9297074445721756  0.6655544745464008  0.5506805272488313  1.0000
  C   C950      1.0  0.9415935049919882  0.6420757709837319  0.5616335517816454  1.0000
  H   H749      1.0  0.9235319170425019  0.6479248450298722  0.6268823707152984  1.0000
  H   H750      1.0  0.9019773115076815  0.6896971332689167  0.6084647919006148  1.0000
  H   H751      1.0  0.9324158674302658  0.6697263445026606  0.5290568878307754  1.0000
  H   H752      1.0  0.9522782552516279  0.6279306639765265  0.5484456307572536  1.0000
  C   C951      1.0  0.9552738363483254  0.7373598753972304  0.5282198175084754  1.0000
  C   C952      1.0  0.9228173097862078  0.7311798793745188  0.5298208160860783  1.0000
  C   C953      1.0  0.908319397748747  0.7401514392719982  0.5075063904797165  1.0000
  C   C954      1.0  0.924040958906618  0.747989126933858  0.4832496366497653  1.0000
  C   C955      1.0  0.955871085714598  0.7527960408127571  0.481935111167901  1.0000
  C   C956      1.0  0.9716085783353253  0.748243863801574  0.5049382912384853  1.0000
  C   C957      1.0  0.9041071904088005  0.7136111321175147  0.5561316429641977  1.0000
  C   C958      1.0  0.9125087525732646  0.7457278166250159  0.5753090865860178  1.0000
  C   C959      1.0  0.8941986324009846  0.7673645559109824  0.5747178548777913  1.0000
  C   C960      1.0  0.9023523242276642  0.7960454138628945  0.5899700075707676  1.0000
  C   C961      1.0  0.9294528155974121  0.8044290784943383  0.6051774623339122  1.0000
  C   C962      1.0  0.9484927586923468  0.7843191852243345  0.6048889575140904  1.0000
  C   C963      1.0  0.9406503141671603  0.7558213292555815  0.5898948337796872  1.0000
  C   C964      1.0  0.8603633138569539  0.6746735836222597  0.5267407223758676  1.0000
  C   C965      1.0  0.8296425158171  0.6611761459911721  0.5186666508690223  1.0000
  C   C966      1.0  0.8045359222560969  0.6619592146379162  0.535154091804616  1.0000
  C   C967      1.0  0.8118905894234757  0.679636215413641  0.5593905283937347  1.0000
  C   C968      1.0  0.8432136885331118  0.6947039115705772  0.5669526054316004  1.0000
  C   C969      1.0  0.8680849237779996  0.6936932029928868  0.550178691400268  1.0000
  C   C970      1.0  0.7696250525094714  0.6445605041331144  0.5240202438283925  1.0000
  C   C971      1.0  0.7650582745451976  0.7335654718115975  0.4804296036222109  1.0000
  C   C972      1.0  0.7772972661370645  0.7108960747138677  0.4682595763635286  1.0000
  C   C973      1.0  0.776479474988773  0.6817532117972257  0.48113664360318276  1.0000
  C   C974      1.0  0.7648690151866063  0.6752132400650734  0.5073926139310544  1.0000
  C   C975      1.0  0.7541113053911495  0.6993107966359637  0.519855209457725  1.0000
  C   C976      1.0  0.7537544249560698  0.7275881100398585  0.5064458305082588  1.0000
  C   C977      1.0  0.743924967546601  0.6294095812490291  0.547072185276975  1.0000
  C   C978      1.0  0.750627770329666  0.61258076746344  0.5694678798466669  1.0000
  C   C979      1.0  0.7277422145054735  0.5981629229829417  0.5884380876119951  1.0000
  C   C980      1.0  0.6975851054429206  0.6010005391443385  0.5859431304377611  1.0000
  C   C981      1.0  0.6908625311149675  0.6177680476520281  0.564004573786801  1.0000
  C   C982      1.0  0.7131212295580384  0.6304629743718059  0.544457356381829  1.0000
  C   C983      1.0  0.7408381348722968  0.6026922700922985  0.4877946034240011  1.0000
  C   C984      1.0  0.736631226387763  0.5751848709709125  0.4717825859238884  1.0000
  C   C985      1.0  0.7557865476174733  0.5551983909356669  0.4744868106786974  1.0000
  C   C986      1.0  0.7777719256260985  0.5613242865330272  0.494747163236891  1.0000
  C   C987      1.0  0.7825250754991411  0.5892426450727094  0.5105275641915129  1.0000
  C   C988      1.0  0.7651666398947742  0.6115453644472274  0.5065392898160883  1.0000
  H   H753      1.0  0.9683832264109601  0.7322351931547911  0.5452558239465473  1.0000
  H   H754      1.0  0.883273353015056  0.737392430726995  0.5075063904797165  1.0000
  H   H755      1.0  0.9112081488781794  0.7505274899503437  0.46519776817006714  1.0000
  H   H756      1.0  0.9966489035845664  0.750901806886365  0.5047046429689114  1.0000
  H   H757      1.0  0.873183322380252  0.7620703070692956  0.5623121476254518  1.0000
  H   H758      1.0  0.8876287693884264  0.8123500198846789  0.5895270917206186  1.0000
  H   H759      1.0  0.9700196999546543  0.7907915852409579  0.6166120054744572  1.0000
  H   H760      1.0  0.9568509700017929  0.7410465078237606  0.5900208006728489  1.0000
  H   H761      1.0  0.8788260627461166  0.6708576263549214  0.5138230206545484  1.0000
  H   H762      1.0  0.8260883101342974  0.6489430429919509  0.49912349691221686  1.0000
  H   H763      1.0  0.7929687867000117  0.6807677886658257  0.5729807307866104  1.0000
  H   H764      1.0  0.8483365644916692  0.7074078557034023  0.5862011593963342  1.0000
  H   H765      1.0  0.7874193536018704  0.7153828479256593  0.448224745178576  1.0000
  H   H766      1.0  0.7871889089786928  0.6652415112387386  0.4707870411230947  1.0000
  H   H767      1.0  0.7462420290463257  0.6969113034223502  0.5407494599298933  1.0000
  H   H768      1.0  0.7445052107697075  0.7454452943877335  0.516580070235522  1.0000
  H   H769      1.0  0.7742765115756663  0.6109586411352961  0.5726414328647073  1.0000
  H   H770      1.0  0.7340135089497983  0.5850970783927675  0.6053887616385705  1.0000
  H   H771      1.0  0.6676655725258087  0.6211188020882858  0.5618915807402185  1.0000
  H   H772      1.0  0.7061178951285233  0.6426098832421294  0.5273035099469284  1.0000
  H   H773      1.0  0.7250084865481309  0.6176279438574231  0.4851127276341078  1.0000
  H   H774      1.0  0.7177649787451316  0.5690042618671959  0.45703633252764203  1.0000
  H   H775      1.0  0.7921488283570388  0.5449969500609114  0.4980426196999265  1.0000
  H   H776      1.0  0.8007970098749088  0.5940319143393012  0.5257980024012384  1.0000
  C   C989      1.0  0.6147794165031211  0.5442593949234656  0.6162300413468057  1.0000
  C   C990      1.0  0.5984861152482559  0.565874442673631  0.6243975721614805  1.0000
  C   C991      1.0  0.5697303230802528  0.5541459765110157  0.6371832118173884  1.0000
  C   C992      1.0  0.5561934294387595  0.5205939276184233  0.6424189647799299  1.0000
  C   C993      1.0  0.5755640466514484  0.50046623413153  0.6388004641876572  1.0000
  C   C994      1.0  0.6034216615016925  0.5116987303023752  0.624320366646317  1.0000
  H   H777      1.0  0.6070232009291661  0.59233331617104  0.6203422508913087  1.0000
  H   H778      1.0  0.5573353514497353  0.5717964154692771  0.6426221371882552  1.0000
  H   H779      1.0  0.5700703850516768  0.9780034764757222  0.6408403151672427  1.0000
  H   H780      1.0  0.6170541666461441  0.49504443991841873  0.6197286702181665  1.0000
  C   C995      1.0  0.5148730810052257  0.9625695958917859  0.608724852583271  1.0000
  C   C996      1.0  0.5056813818542568  0.9703016092493525  0.6343733374102501  1.0000
  C   C997      1.0  0.9679243192493187  0.9419606057333194  0.6489001646055054  1.0000
  C   C998      1.0  0.956310687900332  0.9105980356505703  0.6383981828191734  1.0000
  C   C999      1.0  0.9683213180213058  0.9017679198152011  0.6146676455267844  1.0000
  C   C1000     1.0  0.49929768843491623  0.9328467307944022  0.5963760336052626  1.0000
  C   C1001     1.0  0.5193634447895004  0.0064731897358409896  0.6475328142974763  1.0000
  C   C1002     1.0  0.9990653684496146  0.52241747276688  0.6323395816029145  1.0000
  C   C1003     1.0  0.9705804287641693  0.5231122973269665  0.6443551978312695  1.0000
  C   C1004     1.0  0.9526776798304465  0.5413225704412185  0.6331177319268001  1.0000
  C   C1005     1.0  0.9610639159259475  0.5569319544647504  0.6083814912132014  1.0000
  C   C1006     1.0  0.9880946171933123  0.5547562466123115  0.5955308363866295  1.0000
  C   C1007     1.0  0.00647069975119101  0.5373774731758872  0.6070933781444193  1.0000
  C   C1008     1.0  0.5225464699699148  0.983311711393594  0.6954835343863178  1.0000
  C   C1009     1.0  0.521258178552929  0.9839524532788156  0.7231617115724661  1.0000
  C   C1010     1.0  0.5203421253047833  0.5097504716483338  0.7398157538828867  1.0000
  C   C1011     1.0  0.5239117579176596  0.538008735411307  0.7241105267193451  1.0000
  C   C1012     1.0  0.5246567447433764  0.5368608004130658  0.6964689205666952  1.0000
  C   C1013     1.0  0.5222166049145791  0.5078114396467713  0.6827690050733239  1.0000
  C   C1014     1.0  0.5143098366340013  0.5098960990075281  0.7717564881956986  1.0000
  C   C1015     1.0  0.9626779591849927  0.9166602689748053  0.8139269532676867  1.0000
  C   C1016     1.0  0.987987727041459  0.9396623999990696  0.825501685369976  1.0000
  C   C1017     1.0  0.4980713082499202  0.9668199148071768  0.8090061175380493  1.0000
  C   C1018     1.0  0.9937559123181903  0.9758979516285262  0.7868034367562664  1.0000
  C   C1019     1.0  0.9672455330327552  0.9529377801997501  0.7759987280815297  1.0000
  C   C1020     1.0  0.9525202568352832  0.9234371092574668  0.7888432877358519  1.0000
  C   C1021     1.0  0.9908008138873826  0.5362347919998709  0.780330363827024  1.0000
  C   C1022     1.0  0.9676107764559598  0.5437134425724512  0.7653281131962878  1.0000
  C   C1023     1.0  0.9540002462248256  0.5672832727020739  0.7738776081386142  1.0000
  C   C1024     1.0  0.962797701324116  0.5836930318283519  0.7980002681790707  1.0000
  C   C1025     1.0  0.9828343146929149  0.5735405520571268  0.8148818635868155  1.0000
  C   C1026     1.0  0.49555175531544815  0.547237633318307  0.8060377686524175  1.0000
  C   C1027     1.0  0.564334076929024  0.5587984202428119  0.7832458878864913  1.0000
  C   C1028     1.0  0.5932872854780517  0.572008280366279  0.7952411868740138  1.0000
  C   C1029     1.0  0.6102369053014854  0.5514977700127099  0.8040202666377478  1.0000
  C   C1030     1.0  0.5984958668567851  0.5179575642550301  0.7984066129957211  1.0000
  C   C1031     1.0  0.5695022132716209  0.5047759775775257  0.7861532850496256  1.0000
  C   C1032     1.0  0.5505391839522564  0.5247698489022127  0.7807143596787588  1.0000
  H   H781      1.0  0.5339254942839389  0.9802439548320138  0.5979059218399516  1.0000
  H   H782      1.0  0.9571844785795369  0.9485068146648681  0.6670272068762837  1.0000
  H   H783      1.0  0.93592411032395  0.8935193498267745  0.6480813797999545  1.0000
  H   H784      1.0  0.5072057781954444  0.9278007107544609  0.5764915500024708  1.0000
  H   H785      1.0  0.9620633852509154  0.509359933403164  0.662819506299868  1.0000
  H   H786      1.0  0.9302574625577241  0.5406129693055557  0.6423986475390975  1.0000
  H   H787      1.0  0.9952572652171832  0.5656349384367916  0.5757804465733324  1.0000
  H   H788      1.0  0.02700417274837934  0.5354637079730644  0.5960428308556092  1.0000
  H   H789      1.0  0.5284844987180608  0.9628237180521315  0.6863285856671822  1.0000
  H   H790      1.0  0.5264686792938726  0.9642533464773331  0.7343890188565192  1.0000
  H   H791      1.0  0.5244348892646099  0.5612346197756498  0.7336068050844671  1.0000
  H   H792      1.0  0.5248919062207456  0.5590200501914253  0.6854061829333855  1.0000
  H   H793      1.0  0.9958388233455976  0.9341080691270054  0.8451911234607756  1.0000
  H   H794      1.0  0.5137673844638923  0.9852989445398865  0.8217694082290412  1.0000
  H   H795      1.0  0.9573817034747474  0.9577887008761292  0.7569939810067862  1.0000
  H   H796      1.0  0.9326296649084588  0.9060982618475171  0.7790280286896593  1.0000
  H   H797      1.0  0.9602789107168257  0.5322978502732447  0.745854037858313  1.0000
  H   H798      1.0  0.9381305284842899  0.5748353937738412  0.7605555933247277  1.0000
  H   H799      1.0  0.988919511520868  0.5844576901924022  0.8347257127079423  1.0000
  H   H800      1.0  0.5127827387139774  0.5430584310085559  0.8200566648268595  1.0000
  H   H801      1.0  0.5513076334891587  0.5755315473731193  0.7770206852954057  1.0000
  H   H802      1.0  0.6017038270808299  0.5986506864704473  0.798179059898397  1.0000
  H   H803      1.0  0.6111588242290701  0.5013155068738632  0.8055684403891862  1.0000
  H   H804      1.0  0.5577328199903502  0.9786820407406186  0.7826119899725165  1.0000
  C   C1033     1.0  0.7318156512728385  0.790706750464697  0.432950243520684  1.0000
  C   C1034     1.0  0.7178089049509357  0.8116114257243223  0.44579480317500614  1.0000
  C   C1035     1.0  0.7156050589322005  0.83992583760641  0.4331249717918438  1.0000
  C   C1036     1.0  0.7280970032223928  0.8488007333934572  0.40729363179737194  1.0000
  C   C1037     1.0  0.7409665600045572  0.8266139029246822  0.3943352955943877  1.0000
  C   C1038     1.0  0.742845314892551  0.7981560824411399  0.4067958593969751  1.0000
  H   H805      1.0  0.7083566175229604  0.8058908809998346  0.46608359987036524  1.0000
  H   H806      1.0  0.7051586828742402  0.8562665072228873  0.444031266670743  1.0000
  H   H807      1.0  0.7495967759726176  0.8311773132373118  0.37372751821795797  1.0000
  H   H808      1.0  0.7527723405801372  0.7816304389048251  0.39548931487367506  1.0000
  C   C1039     1.0  0.7843383718747278  0.8971535751651974  0.373406505812804  1.0000
  C   C1040     1.0  0.7534070208467794  0.8979898651042351  0.37034063417117613  1.0000
  C   C1041     1.0  0.7474653391878419  0.9160293809852972  0.3485727423432092  1.0000
  C   C1042     1.0  0.7706348721582419  0.930525986628017  0.32981789733070566  1.0000
  C   C1043     1.0  0.8003168910132054  0.9266508820781528  0.3319004145160394  1.0000
  C   C1044     1.0  0.8072520115943654  0.910123801027452  0.3540258897826588  1.0000
  C   C1045     1.0  0.7269059757371988  0.8827815627463051  0.39276274115395027  1.0000
  C   C1046     1.0  0.7332891411852039  0.9140372100300809  0.412911348887565  1.0000
  C   C1047     1.0  0.7183786083262568  0.9380278947623648  0.40954275035753235  1.0000
  C   C1048     1.0  0.720802974653043  0.962941295215971  0.4280415981355461  1.0000
  C   C1049     1.0  0.7390726071829843  0.9649989197963516  0.45087614510722057  1.0000
  C   C1050     1.0  0.7562464415536165  0.9428146616416333  0.45372259054785724  1.0000
  C   C1051     1.0  0.7544686171470764  0.9186333704308619  0.4341631827983857  1.0000
  C   C1052     1.0  0.6839078051215427  0.8541191977668295  0.35656148143855787  1.0000
  C   C1053     1.0  0.652872366726909  0.8407238749230193  0.3484305216573815  1.0000
  C   C1054     1.0  0.627481774312165  0.8402411582281133  0.36577738188019104  1.0000
  C   C1055     1.0  0.6351082413292934  0.8572596308806164  0.3899711522635614  1.0000
  C   C1056     1.0  0.665814888573008  0.8710267453622056  0.39770389412442025  1.0000
  C   C1057     1.0  0.691097225755661  0.8698950259021445  0.3814013400804025  1.0000
  C   C1058     1.0  0.5906691347073938  0.8235413885553767  0.35794914898741925  1.0000
  C   C1059     1.0  0.5768206485643785  0.9068215017542691  0.3110650840422854  1.0000
  C   C1060     1.0  0.5847258210574087  0.8817271508693416  0.2979340512922247  1.0000
  C   C1061     1.0  0.5885159684081379  0.855351400438409  0.31269655848113714  1.0000
  C   C1062     1.0  0.5855415002844993  0.8537806154064682  0.3408826666880986  1.0000
  C   C1063     1.0  0.5796859519493488  0.8809001617676924  0.3534813877283471  1.0000
  C   C1064     1.0  0.5733084350835574  0.9058317971766476  0.33871481709126816  1.0000
  C   C1065     1.0  0.5670498064012325  0.8107046204811827  0.383047036587837  1.0000
  C   C1066     1.0  0.5756349186570505  0.7944687207422603  0.40507092565029373  1.0000
  C   C1067     1.0  0.5563328638553694  0.7855086568913587  0.42764338021522863  1.0000
  C   C1068     1.0  0.5290030707797005  0.7947621058170595  0.42913466569233594  1.0000
  C   C1069     1.0  0.5192730235130939  0.8088064827645903  0.40689744560113766  1.0000
  C   C1070     1.0  0.5375109694293314  0.8156671448725816  0.384068993801713  1.0000
  C   C1071     1.0  0.5575948338685911  0.7770024487344139  0.3259291774353605  1.0000
  C   C1072     1.0  0.5516383833607046  0.746652414292802  0.3138018163824265  1.0000
  C   C1073     1.0  0.5700732719820171  0.726348995866028  0.3189217610722227  1.0000
  C   C1074     1.0  0.5950074987116164  0.7367860608547376  0.3367989012807612  1.0000
  C   C1075     1.0  0.6018692361882088  0.7677487106404988  0.3486052499285412  1.0000
  C   C1076     1.0  0.5835562661188542  0.7888195262865553  0.3429773742179319  1.0000
  H   H809      1.0  0.7908571008763957  0.8856507998806736  0.3911475205077645  1.0000
  H   H810      1.0  0.7243661808670272  0.9195318813570414  0.34642520998721127  1.0000
  H   H811      1.0  0.7652709009781372  0.944875297948384  0.31330607570611285  1.0000
  H   H812      1.0  0.8310261036793968  0.9087674277180312  0.3572563310750302  1.0000
  H   H813      1.0  0.7042806526727069  0.9368099246150255  0.391657483252661  1.0000
  H   H814      1.0  0.7072360052761967  0.9801751100897126  0.42495744097716887  1.0000
  H   H815      1.0  0.7705716236678238  0.9435355865117302  0.4715875404118962  1.0000
  H   H816      1.0  0.7679043576458295  0.9013255674567757  0.43708683375418605  1.0000
  H   H817      1.0  0.7026780911442544  0.851481991414175  0.34348327351466174  1.0000
  H   H818      1.0  0.648192367311671  0.8295532723143612  0.3285683870195054  1.0000
  H   H819      1.0  0.6167657599668324  0.8599222048504379  0.4035958939658524  1.0000
  H   H820      1.0  0.6700278863050405  0.8820831501008881  0.41752742600471454  1.0000
  H   H821      1.0  0.5864613746714641  0.8818262047743948  0.27601378015801387  1.0000
  H   H822      1.0  0.5934593707915905  0.835397375292699  0.30159724981432895  1.0000
  H   H823      1.0  0.5785033540656837  0.8819844263765578  0.37535289748455986  1.0000
  H   H824      1.0  0.5663633758510771  0.9252919397022138  0.3489181354373621  1.0000
  H   H825      1.0  0.5977846508083786  0.7886277766223286  0.40432731463582333  1.0000
  H   H826      1.0  0.5636179106872863  0.7730025477568844  0.44446199217639254  1.0000
  H   H827      1.0  0.9875195313605688  0.8152980110808477  0.403689353273682  1.0000
  H   H828      1.0  0.5283377282034986  0.8264034308715335  0.3672727308054648  1.0000
  H   H829      1.0  0.5423557964054625  0.7920428095143951  0.32110180101355257  1.0000
  H   H830      1.0  0.5317347390703291  0.7388546633022894  0.3001608208874694  1.0000
  H   H831      1.0  0.6096716351455338  0.7209822213215775  0.3410492680629253  1.0000
  H   H832      1.0  0.6214760224204166  0.7749883899180269  0.36260586058623395  1.0000
  C   C1077     1.0  0.733169389438727  0.8145445771248275  0.9818672342652522  1.0000
  C   C1078     1.0  0.7454583161332522  0.8229439608913003  0.007207988164636435  1.0000
  C   C1079     1.0  0.7352479481618528  0.8445630924014758  0.023191520893101912  1.0000
  C   C1080     1.0  0.7165447333492928  0.8624462840311786  0.012360724881136341  1.0000
  C   C1081     1.0  0.7029972656140676  0.8522190583085948  0.9872777154989536  1.0000
  C   C1082     1.0  0.7115601977016854  0.8292007120649663  0.9719341352222309  1.0000
  H   H833      1.0  0.7620900952277422  0.8111924410896717  0.015365360358895084  1.0000
  H   H834      1.0  0.744180349795223  0.8492517500585416  0.04360831620570593  1.0000
  H   H835      1.0  0.6873778032727892  0.8649584740125154  0.9788115212440406  1.0000
  H   H836      1.0  0.7012987193824567  0.8230835627546458  0.9520049536896075  1.0000
  C   C1083     1.0  0.7307188509573075  0.9290495016494748  0.982251230116987  1.0000
  C   C1084     1.0  0.7152309956265644  0.9256384873296115  0.007276010286943728  1.0000
  C   C1085     1.0  0.7050082546424727  0.9521721520074904  0.015546590147121201  1.0000
  C   C1086     1.0  0.7068244949547355  0.9785975787394877  0.9987293049017837  1.0000
  C   C1087     1.0  0.7215532682181337  0.9810732936024554  0.9739028758589027  1.0000
  C   C1088     1.0  0.7339571330446122  0.9563559392540157  0.9658145822834746  1.0000
  C   C1089     1.0  0.7115279859528392  0.8940516618450408  0.02720803623328371  1.0000
  C   C1090     1.0  0.7378285478130439  0.9110437821737525  0.04906329219683048  1.0000
  C   C1091     1.0  0.7306229187183555  0.924187219299603  0.07325584354575088  1.0000
  C   C1092     1.0  0.7534601256440063  0.9469086707197704  0.08753012743745771  1.0000
  C   C1093     1.0  0.7846618008481868  0.9549336499886073  0.07954890572121706  1.0000
  C   C1094     1.0  0.7925735656061008  0.9407319926528386  0.05655486840900729  1.0000
  C   C1095     1.0  0.7694659309343802  0.9192332459689528  0.04164973418945056  1.0000
  C   C1096     1.0  0.6512291914886614  0.8788369340179477  0.023880884874549473  1.0000
  C   C1097     1.0  0.6210146692492139  0.863001745152196  0.03199376231138489  1.0000
  C   C1098     1.0  0.6141659053578019  0.8435414411820104  0.05486914693713272  1.0000
  C   C1099     1.0  0.6397366357169583  0.8415298307709211  0.07022166679982164  1.0000
  C   C1100     1.0  0.6703924889784717  0.8580105936623531  0.06229713018550373  1.0000
  C   C1101     1.0  0.6766813785174471  0.8770777033018997  0.03886383412649477  1.0000
  C   C1102     1.0  0.5776455966789229  0.8263556985535343  0.06184832233551326  1.0000
  C   C1103     1.0  0.5547795970103174  0.906705449827936  0.10507731565487596  1.0000
  C   C1104     1.0  0.5536846542232746  0.9056481886050305  0.07710555433869765  1.0000
  C   C1105     1.0  0.5626585673338398  0.881876078458394  0.06331258588231331  1.0000
  C   C1106     1.0  0.5711385682077808  0.8569106043184131  0.0771252620623052  1.0000
  C   C1107     1.0  0.5732069131587075  0.8590240452960324  0.105151676756323  1.0000
  C   C1108     1.0  0.5643709375332675  0.8830647301328547  0.11890848052402544  1.0000
  C   C1109     1.0  0.5686162504619342  0.7913069106126848  0.0775212450861311  1.0000
  C   C1110     1.0  0.586759952311741  0.7696933589314283  0.07513335977108448  1.0000
  C   C1111     1.0  0.5767185479922184  0.7380607930664064  0.08570726458996361  1.0000
  C   C1112     1.0  0.5498488101770383  0.7281386357520884  0.10144438982161222  1.0000
  C   C1113     1.0  0.5317839505499687  0.7492633280527566  0.10498649758835459  1.0000
  C   C1114     1.0  0.5406901638737874  0.7800521602710284  0.09265738633395364  1.0000
  C   C1115     1.0  0.5244834978794698  0.8165276386400622  0.03363844295677776  1.0000
  C   C1116     1.0  0.5067084171673218  0.8065561435601367  0.010732318345650322  1.0000
  C   C1117     1.0  0.5182751568406212  0.792706125500488  0.9894455650957841  1.0000
  C   C1118     1.0  0.5477191427180831  0.7882859495642756  0.9917292229653597  1.0000
  C   C1119     1.0  0.5656621184751955  0.7988521458851365  0.014490134258311586  1.0000
  C   C1120     1.0  0.5551353142896759  0.8142431670327913  0.03576159462377659  1.0000
  H   H837      1.0  0.7413800128625888  0.910694515664199  0.9750589268622732  1.0000
  H   H838      1.0  0.6951097943900125  0.9524750731726057  0.035593571042091605  1.0000
  H   H839      1.0  0.6972712490919523  0.9980689277466817  0.005315010519029281  1.0000
  H   H840      1.0  0.7456189675654442  0.9576492661322765  0.9463181579805839  1.0000
  H   H841      1.0  0.7064683675870737  0.9206043836821042  0.07975309399158394  1.0000
  H   H842      1.0  0.7464620598573537  0.9592825108943477  0.10458116863374571  1.0000
  H   H843      1.0  0.8165922694965561  0.9478217541141667  0.04874939082596797  1.0000
  H   H844      1.0  0.7760948292493519  0.9107321854520937  0.022471681050405562  1.0000
  H   H845      1.0  0.6546135065868396  0.8929823732418453  0.005319236505122446  1.0000
  H   H846      1.0  0.6021308299842999  0.8661437741920291  0.019539801612068093  1.0000
  H   H847      1.0  0.6355633090403301  0.8272204950930645  0.08874103499107619  1.0000
  H   H848      1.0  0.6897741493993925  0.8557539447184846  0.07461019081964697  1.0000
  H   H849      1.0  0.5457913266695732  0.9229989327201679  0.06504524018051101  1.0000
  H   H850      1.0  0.5620595681702977  0.8823927127689184  0.04139211157569415  1.0000
  H   H851      1.0  0.5808595192509544  0.8408558562933347  0.11643648183193217  1.0000
  H   H852      1.0  0.5655066506614926  0.8831595855247187  0.14081960889986167  1.0000
  H   H853      1.0  0.6084920709790798  0.7763969230744538  0.06345622877499926  1.0000
  H   H854      1.0  0.5907649915132317  0.721445416065159  0.0820408153093262  1.0000
  H   H855      1.0  0.5101539239631313  0.7416915595261294  0.1168663946479484  1.0000
  H   H856      1.0  0.5254039086849979  0.7956384674399928  0.09495689165137879  1.0000
  H   H857      1.0  0.5140589762336708  0.8268834344011935  0.049930025690745984  1.0000
  H   H858      1.0  0.9757671878920731  0.8134138511790276  0.02175590465587572  1.0000
  H   H859      1.0  0.5573683846899167  0.7771323913635019  0.9754063516805095  1.0000
  H   H860      1.0  0.5886912802289495  0.7949659172404857  0.015523428492572123  1.0000
  C   C1121     1.0  0.8762787821216519  0.9921814892223981  0.3063291352042239  1.0000
  C   C1122     1.0  0.880645970101256  0.5170311137049243  0.2910099356165003  1.0000
  C   C1123     1.0  0.9094144414243676  0.528641144606147  0.2779825207946855  1.0000
  C   C1124     1.0  0.9364643553748966  0.5210358125681435  0.2867676957306692  1.0000
  C   C1125     1.0  0.9305452478450335  0.9952149252982669  0.30238759048271413  1.0000
  C   C1126     1.0  0.9012747825087047  0.9817882034318417  0.31417159016557844  1.0000
  H   H861      1.0  0.8608999633951984  0.5247476624323164  0.28377699788012156  1.0000
  H   H862      1.0  0.9105472952707437  0.5446060495055424  0.2607941350503697  1.0000
  H   H863      1.0  0.9481950126764533  0.9860227963982415  0.31165631575051184  1.0000
  H   H864      1.0  0.898426452045977  0.9638256393135631  0.3304619538650967  1.0000
  C   C1127     1.0  0.5064466168541792  0.0017097388608599755  0.3012498249960927  1.0000
  C   C1128     1.0  0.992181298204563  0.512992653072693  0.2763835539411658  1.0000
  C   C1129     1.0  0.48810874186899605  0.9785088823594029  0.25865472959070485  1.0000
  C   C1130     1.0  0.5030149207051556  0.9548386410360368  0.2620781846709852  1.0000
  C   C1131     1.0  0.5194928437072563  0.954038278982828  0.28547755093780386  1.0000
  C   C1132     1.0  0.5217373145737145  0.9779963511028581  0.3049028648977807  1.0000
  C   C1133     1.0  0.9707537915038593  0.5377080563095241  0.27193610992292616  1.0000
  C   C1134     1.0  0.48912058312230405  0.5673841368327288  0.286227257124524  1.0000
  C   C1135     1.0  0.5221934744737043  0.580092597663804  0.28495539784840795  1.0000
  C   C1136     1.0  0.5383563910011144  0.6114356318285561  0.2939843796743819  1.0000
  C   C1137     1.0  0.5224662588997904  0.6312642159414629  0.30609345521056663  1.0000
  C   C1138     1.0  0.48987180587596485  0.619229297552357  0.308068291019488  1.0000
  C   C1139     1.0  0.9675088792858454  0.595256692894949  0.29129031353998913  1.0000
  C   C1140     1.0  0.9445223879858321  0.5193614046430793  0.22458474843864423  1.0000
  C   C1141     1.0  0.9431423441064337  0.5213827155537095  0.1969114473902957  1.0000
  C   C1142     1.0  0.9657643699719088  0.5449513043839719  0.18240554695309807  1.0000
  C   C1143     1.0  0.9896547027402127  0.5669978912924178  0.19703111593879927  1.0000
  C   C1144     1.0  0.9905958307175888  0.565694424464256  0.22484074567313403  1.0000
  C   C1145     1.0  0.967780037751554  0.541983420820282  0.2395504280358819  1.0000
  C   C1146     1.0  0.9666516989067208  0.5438163607706512  0.1497904834170546  1.0000
  C   C1147     1.0  0.5156361402653887  0.9792891883590754  0.11968378643419458  1.0000
  C   C1148     1.0  0.991022563173921  0.9645108150334533  0.13524557387745853  1.0000
  C   C1149     1.0  0.9724568917810628  0.9852259228652955  0.13588577013609138  1.0000
  C   C1150     1.0  0.988626833468046  0.5196019221503637  0.14697918680305816  1.0000
  C   C1151     1.0  0.5206573532436354  0.5191900164583677  0.14403176467548381  1.0000
  C   C1152     1.0  0.537540924348856  0.4974438238856945  0.1384532598600975  1.0000
  C   C1153     1.0  0.9785142601682691  0.5801865281569263  0.13644693232788568  1.0000
  C   C1154     1.0  0.9724079582139358  0.6081406798926317  0.14713441052301865  1.0000
  C   C1155     1.0  0.9835855871003133  0.6388341846531911  0.13435933583234377  1.0000
  C   C1156     1.0  0.003206399323716862  0.6428474930019652  0.11190451809182922  1.0000
  C   C1157     1.0  0.008268695763891139  0.6149793828683876  0.10079301908052149  1.0000
  C   C1158     1.0  0.9949042889168483  0.5842091126393065  0.11211195712072929  1.0000
  C   C1159     1.0  0.9315197255007646  0.5118551566712564  0.1102746690322441  1.0000
  C   C1160     1.0  0.9028756705419505  0.49491665882845753  0.09903618726573307  1.0000
  C   C1161     1.0  0.8688997292657653  0.9956931327132048  0.11136733024421727  1.0000
  C   C1162     1.0  0.8765122543033151  0.516629420238772  0.13314091089961727  1.0000
  C   C1163     1.0  0.9053667777761812  0.5334989393251415  0.14420832149831844  1.0000
  C   C1164     1.0  0.9334015002847331  0.5296401481902467  0.13420370576756666  1.0000
  H   H865      1.0  0.5061722467225763  0.5229368978772441  0.31922245623654405  1.0000
  H   H866      1.0  0.9917897934749815  0.9916311693702433  0.23158200618136573  1.0000
  H   H867      1.0  0.5005859534367132  0.9359687866728056  0.24672444577384633  1.0000
  H   H868      1.0  0.534052287093713  0.9772649317139421  0.3236658368066172  1.0000
  H   H869      1.0  0.5359129793208384  0.565512668771163  0.2758532739554369  1.0000
  H   H870      1.0  0.5639560185985574  0.6196522073325932  0.2928283286710113  1.0000
  H   H871      1.0  0.4767623125348871  0.6337263120022247  0.3181050079907552  1.0000
  H   H872      1.0  0.9425047310186081  0.5881200527542498  0.28730000744048134  1.0000
  H   H873      1.0  0.9298854880852268  0.9954356411400832  0.23082214137422932  1.0000
  H   H874      1.0  0.9258438045653434  0.997217059813795  0.183027051350165  1.0000
  H   H875      1.0  0.5105269338692401  0.5727755376547362  0.18708399799960354  1.0000
  H   H876      1.0  0.5126055817864572  0.5726820673266995  0.23429842128067427  1.0000
  H   H877      1.0  0.9797190209965926  0.9380755354806262  0.13345643764974638  1.0000
  H   H878      1.0  0.9471538652705177  0.9737093189885094  0.1347447538909368  1.0000
  H   H879      1.0  0.5333681175088566  0.5453541440033314  0.14588246214291847  1.0000
  H   H880      1.0  0.5629233558092176  0.5067748113347222  0.13568097234849952  1.0000
  H   H881      1.0  0.9574302108049448  0.6055437471865673  0.16488599018321207  1.0000
  H   H882      1.0  0.977902413549386  0.660238592440835  0.14235091934140903  1.0000
  H   H883      1.0  0.022733531573799058  0.6163218365020126  0.08283501625346959  1.0000
  H   H884      1.0  0.9997607339458694  0.5634603577828435  0.10220628635283191  1.0000
  H   H885      1.0  0.9526917507295852  0.509212487167239  0.10077371770173058  1.0000
  H   H886      1.0  0.8939888223150403  0.9842941074994014  0.07730994578147285  1.0000
  H   H887      1.0  0.8547279720384019  0.5180925886603527  0.14232186568701852  1.0000
  H   H888      1.0  0.905446257028869  0.5477078111521879  0.16245198473147562  1.0000
  C   C1165     1.0  0.017803190732394038  0.6768272730277479  0.09766416399231269  1.0000
  C   C1166     1.0  0.541093505622185  0.6946861157959019  0.11628593107736317  1.0000
  H   H889      1.0  0.5199781722042136  0.6668953700070813  0.08031283397651999  1.0000
  H   H890      1.0  0.9988939100057856  0.6856534481637363  0.0887635871284003  1.0000
  H   H891      1.0  0.5347281372656361  0.6978276244274988  0.1376982711907609  1.0000
  H   H892      1.0  0.5622399224718175  0.6858683745360897  0.11734567835918765  1.0000
  C   C1167     1.0  0.8098532096542288  0.9819688145458663  0.09417670960340983  1.0000
  C   C1168     1.0  0.8369149486531192  0.9698085510652515  0.10539324874982173  1.0000
  H   H893      1.0  0.8389770549981825  0.4990353737727827  0.064601714813137  1.0000
  H   H894      1.0  0.8143262703858563  0.5022399518155273  0.09195054952539011  1.0000
  H   H895      1.0  0.8417325389337903  0.9509001988300079  0.09175205008245635  1.0000
  H   H896      1.0  0.8284204713103532  0.9557514463511297  0.12427243527622027  1.0000
  C   C1169     1.0  0.5452269523619425  0.933458711086364  0.12136706983716926  1.0000
  C   C1170     1.0  0.5318936086531502  0.9571813837699297  0.10411468478423096  1.0000
  H   H897      1.0  0.5272239337170564  0.9202826294233271  0.13649427149902546  1.0000
  H   H898      1.0  0.5658195085650835  0.9480583928247895  0.1332585477240376  1.0000
  H   H899      1.0  0.5506562425939168  0.9727303393975382  0.0906041259754187  1.0000
  H   H900      1.0  0.5140370335748493  0.9418287037988822  0.09012077881601294  1.0000
  C   C1171     1.0  0.8441862168860573  0.9786412925009544  0.32040695137708025  1.0000
  C   C1172     1.0  0.8258259821671519  0.9433105101409588  0.31092692680462425  1.0000
  H   H901      1.0  0.8479391489529798  0.9788790318307405  0.342672615605444  1.0000
  H   H902      1.0  0.8294519256887342  0.4986200627820479  0.3234281250888767  1.0000
  H   H903      1.0  0.8153653302227998  0.944770696611376  0.2906523521778479  1.0000
  H   H904      1.0  0.8423275468199976  0.9282586236437782  0.3079341972299934  1.0000
  C   C1173     1.0  0.5615124132533933  0.6932161928247791  0.3030499325338544  1.0000
  C   C1174     1.0  0.5420077814652396  0.6638220070142865  0.32082142309006373  1.0000
  H   H905      1.0  0.5833253008256271  0.6883519451532051  0.29546347480698976  1.0000
  H   H906      1.0  0.5480493336029505  0.6948444637741  0.28441089579409634  1.0000
  H   H907      1.0  0.5262740019292442  0.6729029258512564  0.33429581721019413  1.0000
  H   H908      1.0  0.5583958273239773  0.657667078941515  0.33543967786906526  1.0000
  C   C1175     1.0  0.5305218362666453  0.9238029835338045  0.2918205935257181  1.0000
  C   C1176     1.0  0.5671884700888414  0.9332282186593664  0.2952989051562463  1.0000
  H   H909      1.0  0.5180301612098652  0.9120111509988861  0.3104515033691432  1.0000
  H   H910      1.0  0.5224704749832321  0.9045316958344527  0.27612552498259274  1.0000
  H   H911      1.0  0.5786034924703393  0.9374198593480714  0.27508325052788424  1.0000
  H   H912      1.0  0.5763939162953525  0.9573329884365858  0.3057643159090797  1.0000
  C   C1177     1.0  0.7508371401292543  0.5261378360811133  0.45493959327372546  1.0000
  C   C1178     1.0  0.7371763827989538  0.49233970248973763  0.4691250908229942  1.0000
  H   H913      1.0  0.7349171528698629  0.5282090283608702  0.43823069441305723  1.0000
  H   H914      1.0  0.7733498691401288  0.527082170974551  0.4446692280328842  1.0000
  H   H915      1.0  0.713498960284055  0.4903398162458116  0.47779039403806595  1.0000
  H   H916      1.0  0.7518946004910853  0.49046123979340506  0.4868396931048724  1.0000
  C   C1179     1.0  0.9721599808897002  0.7603768123217816  0.45448651880316016  1.0000
  C   C1180     1.0  0.5091096625251216  0.7913264732957483  0.45474861120989973  1.0000
  H   H917      1.0  0.9829209379439018  0.7406124963657216  0.44935844721703094  1.0000
  H   H918      1.0  0.95508177067328  0.7596213420294619  0.4379279675246526  1.0000
  H   H919      1.0  0.9873450727692109  0.8144695162780172  0.4575889614782867  1.0000
  H   H920      1.0  0.5242812705216598  0.7944892540976035  0.4730239693387557  1.0000
  C   C1181     1.0  0.7342908320889138  0.7591415582240658  0.447580688644185  1.0000
  C   C1182     1.0  0.7637010175606379  0.7654731769446887  0.46593731573637104  1.0000
  H   H921      1.0  0.7344034089625916  0.7397738660848298  0.4324260587072049  1.0000
  H   H922      1.0  0.7126175300066957  0.7481407858297558  0.45984011176253037  1.0000
  H   H923      1.0  0.7634095792777384  0.7846893799767408  0.48105537463985265  1.0000
  H   H924      1.0  0.7858008882527345  0.7760798093755201  0.4540700153660934  1.0000
  C   C1183     1.0  0.941851886032519  0.5771362663455483  0.5949152239894041  1.0000
  C   C1184     1.0  0.9578955474669671  0.6141028798036684  0.6008681755533338  1.0000
  H   H925      1.0  0.9402110668132951  0.5727675737094299  0.5726211156238747  1.0000
  H   H926      1.0  0.9171647176761195  0.5695088961480845  0.6029202168774187  1.0000
  H   H927      1.0  0.9825263149938699  0.6218361912545423  0.5931232433479754  1.0000
  H   H928      1.0  0.9601205599479362  0.6180444319684537  0.6230566342665339  1.0000
  C   C1185     1.0  0.644483745975002  0.5566100603460488  0.5977169715002092  1.0000
  C   C1186     1.0  0.6705933744821737  0.5882056564161485  0.6070141409051725  1.0000
  H   H929      1.0  0.6557438657973875  0.5367633176454136  0.5947648764072434  1.0000
  H   H930      1.0  0.6368739878194417  0.5612577973815394  0.5771599872258607  1.0000
  H   H931      1.0  0.679868136077777  0.582815734260438  0.6266040245158928  1.0000
  H   H932      1.0  0.6594686557881061  0.6080233972413456  0.6111141601051759  1.0000
  C   C1187     1.0  0.9390393319588092  0.8376456178289291  0.6198871446966601  1.0000
  C   C1188     1.0  0.9525917696403883  0.8678491056951323  0.6010164914114112  1.0000
  H   H933      1.0  0.9565143590307689  0.8372500842922959  0.6358057028889431  1.0000
  H   H934      1.0  0.9179926633188898  0.8402955662587946  0.6308137568163918  1.0000
  H   H935      1.0  0.933234850174724  0.8706004674570366  0.5879931400377629  1.0000
  H   H936      1.0  0.9694104736737255  0.8620055173027518  0.586552647662737  1.0000
  C   C1189     1.0  0.9720356463151747  0.7577107121751084  0.9655646802212345  1.0000
  C   C1190     1.0  0.9874255392628307  0.7949675990112965  0.9709792249031023  1.0000
  H   H937      1.0  0.9553784161195591  0.7460555418219667  0.9821435487405746  1.0000
  H   H938      1.0  0.9901214532361279  0.7443270671732031  0.9658999146949712  1.0000
  H   H939      1.0  0.5152793639645512  0.7862289056978935  0.9453348035242897  1.0000
  H   H940      1.0  0.9689531206251468  0.8075402796358986  0.9735798317296654  1.0000
  C   C1191     1.0  0.7411173947399861  0.54393774863127  0.9619888458347101  1.0000
  C   C1192     1.0  0.7173481023870326  0.5109349711890541  0.9520963812733538  1.0000
  H   H941      1.0  0.7647546878553483  0.5404527261577026  0.9648027836900148  1.0000
  H   H942      1.0  0.7342447092568799  0.5503612476690977  0.9824340852844797  1.0000
  H   H943      1.0  0.6930119348322693  0.513179936918885  0.9526530736721651  1.0000
  H   H944      1.0  0.7216939800777644  0.5072154640427695  0.9303670922029688  1.0000
  C   C1193     1.0  0.7175090594172121  0.7608768265250833  0.954012297083861  1.0000
  C   C1194     1.0  0.7447793690325409  0.7900631082737332  0.964900306446011  1.0000
  H   H945      1.0  0.7018503361155152  0.7700867135719606  0.9407248215793899  1.0000
  H   H946      1.0  0.7021168501497485  0.7477493190696621  0.9708309090450249  1.0000
  H   H947      1.0  0.761439843877788  0.780668895019027  0.9769199861225325  1.0000
  H   H948      1.0  0.7592471739970464  0.8038973754241241  0.9478460144911897  1.0000
  C   C1195     1.0  0.9523580127329541  0.6138255987120791  0.8063364320926556  1.0000
  C   C1196     1.0  0.9168210826519781  0.6072086347286937  0.811241014029627  1.0000
  H   H949      1.0  0.9655599036859571  0.6253696679837357  0.82464836125501  1.0000
  H   H950      1.0  0.9599517779266337  0.6332450267163436  0.7906494904458632  1.0000
  H   H951      1.0  0.9077601654350629  0.5847793592715592  0.8241180812692811  1.0000
  H   H952      1.0  0.9037027415714  0.6013607053436055  0.7917852242084014  1.0000
  C   C1197     1.0  0.6400422364510561  0.5658440441452628  0.8213833806532234  1.0000
  C   C1198     1.0  0.6653447141961956  0.5963293015737096  0.8091463064997937  1.0000
  H   H953      1.0  0.6319156259230504  0.572495808812191  0.8412536421874325  1.0000
  H   H954      1.0  0.6512725102734032  0.5466161684911209  0.8267024343031782  1.0000
  H   H955      1.0  0.6546535837031039  0.6145477940636157  0.8004505274234731  1.0000
  H   H956      1.0  0.6768478896056621  0.5885141265741105  0.7913829428399175  1.0000
  C   C1199     1.0  0.9465275380016627  0.8836971073334416  0.829540752847482  1.0000
  C   C1200     1.0  0.9291721100558611  0.8532902575702821  0.8118098967729377  1.0000
  H   H957      1.0  0.9644571491550038  0.8765888180492507  0.8417879856213278  1.0000
  H   H958      1.0  0.9296445681459229  0.8884408527323908  0.844339831069893  1.0000
  H   H959      1.0  0.944301145443734  0.8517225946205123  0.794398021379464  1.0000
  H   H960      1.0  0.90790662616802  0.8579118723683857  0.8033030680363595  1.0000
