data_image0
_chemical_formula_structural       C6H4C38H24C6H4C38H24C6H4C38H24C6H4C38H24C6H4C38H24C6H4C38H24C2H4C2H4C2H4C2H4C2H4C2H4C2H4C2H4C2H4C2H4C2H4C2H4C2H4C2H4C2H4C2H4C2H4C2H4C6H4C38H24C6H4C38H24C6H4C38H24C6H4C38H24C6H4C38H24C6H4C38H24C2H4C2H4C2H4C2H4C2H4C2H4C2H4C2H4C2H4C2H4C2H4C2H4C2H4C2H4C2H4C2H4C2H4C2H4C6H4C38H24C6H4C38H24C6H4C38H24C6H4C38H24C6H4C38H24C6H4C38H24C2H4C2H4C2H4C2H4C2H4C2H4C2H4C2H4C2H4C2H4C2H4C2H4C2H4C2H4C2H4C2H4C2H4C2H4C6H4C38H24C6H4C38H24C6H4C38H24C6H4C38H24C6H4C38H24C6H4C38H24C2H4C2H4C2H4C2H4C2H4C2H4C2H4C2H4C2H4C2H4C2H4C2H4C2H4C2H4C2H4C2H4C2H4C2H4
_chemical_formula_sum              "C1200 H960"
_cell_length_a       31.90742040096114
_cell_length_b       30.450533302487
_cell_length_c       35.54905358025715
_cell_angle_alpha    89.91519999992362
_cell_angle_beta     89.74380000013187
_cell_angle_gamma    107.39839999949389

_space_group_name_H-M_alt    "P 1"
_space_group_IT_number       1

loop_
  _space_group_symop_operation_xyz
  'x, y, z'

loop_
  _atom_site_type_symbol
  _atom_site_label
  _atom_site_symmetry_multiplicity
  _atom_site_fract_x
  _atom_site_fract_y
  _atom_site_fract_z
  _atom_site_occupancy
  C   C1        1.0  0.6598156116788548  0.36735666622682034  0.07462068708935532  1.0000
  C   C2        1.0  0.6567714542530392  0.39685041098479795  0.10214924128099434  1.0000
  C   C3        1.0  0.6258923550324231  0.41822164553085367  0.10127156818598215  1.0000
  C   C4        1.0  0.5983972413355317  0.4146775000719404  0.07062333623034056  1.0000
  C   C5        1.0  0.603176464605453  0.3866651762530302  0.04074869434241846  1.0000
  C   C6        1.0  0.6334291232039132  0.36229845101553004  0.04297100762786621  1.0000
  H   H1        1.0  0.6745853119891538  0.39976899536923943  0.12781555320052385  1.0000
  H   H2        1.0  0.6229837552398808  0.43818097475790707  0.12541883051798997  1.0000
  H   H3        1.0  0.5816481259321165  0.38137491824723035  0.01712747325645947  1.0000
  H   H4        1.0  0.6359179056672303  0.338395360855206  0.021257037690684433  1.0000
  C   C7        1.0  0.5630514052631169  0.4675174882912411  0.004001759598357246  1.0000
  C   C8        1.0  0.5407488746786125  0.45510431816988206  0.03729707611299449  1.0000
  C   C9        1.0  0.5004737017122817  0.462603244869074  0.040163578945743295  1.0000
  C   C10       1.0  0.4855822176103718  0.4862620134232042  0.01289382579494136  1.0000
  C   C11       1.0  0.5106307118885622  0.5035454598524061  0.9822906027159669  1.0000
  C   C12       1.0  0.5485605620708194  0.4920536986903063  0.9767685761598474  1.0000
  C   C13       1.0  0.5617360990526953  0.4410840536116799  0.07438439048685197  1.0000
  C   C14       1.0  0.5874244011590966  0.49142876888976866  0.09167342523667976  1.0000
  C   C15       1.0  0.5752786585904134  0.507632851891443  0.1255172874356998  1.0000
  C   C16       1.0  0.6055885344114245  0.5391986833130814  0.1462860709628684  1.0000
  C   C17       1.0  0.6475258239333003  0.5588820323102983  0.1325021024835067  1.0000
  C   C18       1.0  0.6574750835951981  0.5506719149158018  0.0959548946296569  1.0000
  C   C19       1.0  0.6276383273014754  0.516771661871911  0.0754927340747844  1.0000
  C   C20       1.0  0.4970091761889175  0.3655996712509027  0.07799072672981966  1.0000
  C   C21       1.0  0.4653464185532389  0.33238705217551323  0.09668347582070891  1.0000
  C   C22       1.0  0.4624805933322451  0.3319097218776795  0.13565553690500964  1.0000
  C   C23       1.0  0.4922171373251248  0.36737446712578825  0.1544973778998593  1.0000
  C   C24       1.0  0.5251880068848498  0.3987693938165382  0.1358749551787628  1.0000
  C   C25       1.0  0.526097984057794  0.40152460651499183  0.09719545179279954  1.0000
  C   C26       1.0  0.4248014950315154  0.29485615497287937  0.15871133397783566  1.0000
  C   C27       1.0  0.35378883611757955  0.3915385424044565  0.1378722240808743  1.0000
  C   C28       1.0  0.3478786546497569  0.3551403517642406  0.11439446878929238  1.0000
  C   C29       1.0  0.3655693220792091  0.320878341275565  0.12386883732775988  1.0000
  C   C30       1.0  0.38974716093619843  0.32248720120818253  0.15655934706218  1.0000
  C   C31       1.0  0.39005756742404224  0.35679705766393155  0.1816714871877434  1.0000
  C   C32       1.0  0.3723009594508874  0.390672512626237  0.17279067321032637  1.0000
  C   C33       1.0  0.441822268811686  0.2829499298514475  0.19873078750941303  1.0000
  C   C34       1.0  0.4849981154297833  0.28309843253633016  0.20516171206873307  1.0000
  C   C35       1.0  0.49942974173045235  0.2810680467629541  0.2412534863518057  1.0000
  C   C36       1.0  0.4711838414855288  0.2758844924484659  0.27117848192049954  1.0000
  C   C37       1.0  0.42736163269085103  0.270931222974072  0.26459452718051063  1.0000
  C   C38       1.0  0.41283776650614984  0.274279994069473  0.22879981148344217  1.0000
  C   C39       1.0  0.3655677183983606  0.21954051829125074  0.14561093781285872  1.0000
  C   C40       1.0  0.3503968199141209  0.17848284041153684  0.12700539342051242  1.0000
  C   C41       1.0  0.3789026878643163  0.1607856002907042  0.1063800756877209  1.0000
  C   C42       1.0  0.4226517494146735  0.18244177605730758  0.10866146312379477  1.0000
  C   C43       1.0  0.4379906139504805  0.22451576390190048  0.1254328957919486  1.0000
  C   C44       1.0  0.40911735950237693  0.2457432814562932  0.14147856032384198  1.0000
  H   H5        1.0  0.5959229570121006  0.4637206954927046  0.0013799925324868845  1.0000
  H   H6        1.0  0.48206716428442326  0.455024838684142  0.06597335665964965  1.0000
  H   H7        1.0  0.45754565568127514  0.49860910734100766  0.017903876378970507  1.0000
  H   H8        1.0  0.5707015811722904  0.5065765694143369  0.9539321973607745  1.0000
  H   H9        1.0  0.5438915828496105  0.49030432204858193  0.13811133373816942  1.0000
  H   H10       1.0  0.5984747161335587  0.5433542367012817  0.17535336612557084  1.0000
  H   H11       1.0  0.6902807561729093  0.5661541396767  0.08477862794220736  1.0000
  H   H12       1.0  0.6392050425230382  0.5062238748678136  0.049680143306086055  1.0000
  H   H13       1.0  0.4987126226521643  0.3644971381345118  0.04784884463668515  1.0000
  H   H14       1.0  0.4436447477192358  0.30548720959988424  0.07980796012526192  1.0000
  H   H15       1.0  0.49015758630749795  0.37047235986297206  0.18483054771882967  1.0000
  H   H16       1.0  0.5505483255298197  0.4211859925142617  0.152381960696496  1.0000
  H   H17       1.0  0.33202641120863846  0.35459347890990606  0.0876254393914142  1.0000
  H   H18       1.0  0.36437470964808927  0.2957485220429816  0.10201702770578414  1.0000
  H   H19       1.0  0.4111877162959104  0.3604697121548021  0.2057642684051166  1.0000
  H   H20       1.0  0.3798378541092838  0.41970945812154187  0.19097688328155343  1.0000
  H   H21       1.0  0.507749880102267  0.2893388168398817  0.18195560572170577  1.0000
  H   H22       1.0  0.5337782002975283  0.2858248718806279  0.24591415553070492  1.0000
  H   H23       1.0  0.40400456199259066  0.26375443144458377  0.2873563600276032  1.0000
  H   H24       1.0  0.3789180711605919  0.2724523423184638  0.22476701613405187  1.0000
  H   H25       1.0  0.3417450945168118  0.23152211375892312  0.16072548120869734  1.0000
  H   H26       1.0  0.3155699291650897  0.16264874237040217  0.12793370150177563  1.0000
  H   H27       1.0  0.44549321795686414  0.16746820891148118  0.09514473484964547  1.0000
  H   H28       1.0  0.4729664568161166  0.24088706453024833  0.12526973861402957  1.0000
  C   C45       1.0  0.5454757255356565  0.37387114641788544  0.8450388463738188  1.0000
  C   C46       1.0  0.5342283401466082  0.4048385710544435  0.8685531713776928  1.0000
  C   C47       1.0  0.5208725621798138  0.43983353768821465  0.8527156729003856  1.0000
  C   C48       1.0  0.5222593237601064  0.4470385054384643  0.8140530478431726  1.0000
  C   C49       1.0  0.5308173394121813  0.4131766829390037  0.7915261050711874  1.0000
  C   C50       1.0  0.5427909368890649  0.3780573487327539  0.8065421915493163  1.0000
  H   H29       1.0  0.5347427916033001  0.4015194396430068  0.898523457128533  1.0000
  H   H30       1.0  0.5113533364452824  0.4631826768707298  0.8711552470600212  1.0000
  H   H31       1.0  0.5281520901010472  0.41348625845881887  0.7610776000057571  1.0000
  H   H32       1.0  0.5492604947255905  0.35262137303960284  0.7875118758834224  1.0000
  C   C51       1.0  0.5950310475237258  0.5132012404585634  0.7729289998432163  1.0000
  C   C52       1.0  0.5548243923816732  0.5218679121253478  0.7716828165704903  1.0000
  C   C53       1.0  0.5522340967457656  0.5590319231828134  0.7498732027703904  1.0000
  C   C54       1.0  0.5835212218013296  0.5767284260917964  0.7230591644958447  1.0000
  C   C55       1.0  0.6220047631634172  0.5654762636176462  0.7226625237702141  1.0000
  C   C56       1.0  0.6283143426498339  0.5356081577619173  0.7492374523874648  1.0000
  C   C57       1.0  0.512486147433493  0.49012123648190153  0.7933630298501717  1.0000
  C   C58       1.0  0.5018458568637993  0.5262883577078252  0.8217411265889062  1.0000
  C   C59       1.0  0.46560692152126876  0.5414655197806386  0.8178478587571845  1.0000
  C   C60       1.0  0.4664560997659699  0.5840780154591663  0.8301634126352752  1.0000
  C   C61       1.0  0.5037891619297253  0.6129089588296556  0.8468223231117606  1.0000
  C   C62       1.0  0.5376063194904774  0.5949929041893242  0.855337439966256  1.0000
  C   C63       1.0  0.535724555629833  0.5513336412117928  0.8441302296760976  1.0000
  C   C64       1.0  0.47996067181328794  0.4684096762570186  0.7255290266029629  1.0000
  C   C65       1.0  0.4525772355006782  0.43718113432047084  0.702847365817434  1.0000
  C   C66       1.0  0.4191600516178114  0.40050113204224025  0.7173767938165977  1.0000
  C   C67       1.0  0.4094618398802229  0.4024051189007174  0.7552545765869247  1.0000
  C   C68       1.0  0.43660457013534193  0.43512707436231907  0.7779868723587045  1.0000
  C   C69       1.0  0.47343337893003906  0.4673485895590476  0.763952542002881  1.0000
  C   C70       1.0  0.39627436654705184  0.35971031576025264  0.6885457952563986  1.0000
  C   C71       1.0  0.3040988761618818  0.42742543188942256  0.6454385436282893  1.0000
  C   C72       1.0  0.3408723905485843  0.43112749378812154  0.6247400864709134  1.0000
  C   C73       1.0  0.37094132039683875  0.4097723189496123  0.6364170769112868  1.0000
  C   C74       1.0  0.3638359024835395  0.38450217592115676  0.669616749563006  1.0000
  C   C75       1.0  0.3265642810309363  0.383669982015494  0.6904024114189248  1.0000
  C   C76       1.0  0.2961721169370679  0.4030103168204659  0.6782106319516692  1.0000
  C   C77       1.0  0.3688829558255819  0.30923454191331057  0.7012551768053282  1.0000
  C   C78       1.0  0.37819806513288867  0.28907873930588734  0.7338894254439144  1.0000
  C   C79       1.0  0.3567541561471335  0.2435096375376872  0.742739295818623  1.0000
  C   C80       1.0  0.3265821117483754  0.217105903540127  0.7182825974595272  1.0000
  C   C81       1.0  0.3169684093554358  0.23585943181101227  0.6855189483005224  1.0000
  C   C82       1.0  0.33729290743263723  0.2817402362623512  0.6776480209933279  1.0000
  C   C83       1.0  0.4357688639967717  0.34105671538879706  0.6278935208924162  1.0000
  C   C84       1.0  0.4717595820042299  0.33653931822155325  0.60963398223945  1.0000
  C   C85       1.0  0.5091154426413713  0.3385144811338554  0.6288527725763883  1.0000
  C   C86       1.0  0.5093746370488172  0.3419347855022517  0.6676813678663119  1.0000
  C   C87       1.0  0.47141187810105956  0.3434518208528909  0.6859662240124038  1.0000
  C   C88       1.0  0.4344942857525455  0.3458283973164467  0.6663648582237934  1.0000
  H   H33       1.0  0.6014978828511963  0.48823537933415045  0.7914389003726445  1.0000
  H   H34       1.0  0.5219578168674198  0.5679264096105214  0.7493921704010086  1.0000
  H   H35       1.0  0.576943476724948  0.5984993676872487  0.7010807674082424  1.0000
  H   H36       1.0  0.657968458110681  0.5253053855411787  0.7480137735530724  1.0000
  H   H37       1.0  0.4389146765382578  0.5241825885347711  0.7997120945150531  1.0000
  H   H38       1.0  0.43894917447875875  0.5959869102627469  0.8230998320533004  1.0000
  H   H39       1.0  0.5679505117248579  0.6162748966960165  0.8677345724333062  1.0000
  H   H40       1.0  0.5634703931410098  0.5390565657679252  0.849272493835337  1.0000
  H   H41       1.0  0.5091508433099984  0.49039839116453854  0.7118603933700614  1.0000
  H   H42       1.0  0.4610277953424724  0.438571124350946  0.6734087474222263  1.0000
  H   H43       1.0  0.38360613070390387  0.3747166198018324  0.7672156855612604  1.0000
  H   H44       1.0  0.43053535683326966  0.43274817445990177  0.8077602442741252  1.0000
  H   H45       1.0  0.3472380237718695  0.45224472752427536  0.5998558037834784  1.0000
  H   H46       1.0  0.400665530352685  0.41454252223180216  0.6201266766125149  1.0000
  H   H47       1.0  0.32011859136763227  0.367048930900528  0.7176946690080606  1.0000
  H   H48       1.0  0.26656743096301466  0.4003929271825251  0.6949286165787805  1.0000
  H   H49       1.0  0.4046539212396657  0.30664526383286184  0.7523064951652164  1.0000
  H   H50       1.0  0.3666760236788646  0.22827908797592547  0.7672269377804274  1.0000
  H   H51       1.0  0.2955753542480571  0.2138933713339915  0.6652818321289864  1.0000
  H   H52       1.0  0.3325101719118372  0.29494344649997706  0.6502938761987747  1.0000
  H   H53       1.0  0.40747413638403035  0.3384840460529691  0.6114568417444757  1.0000
  H   H54       1.0  0.47044317070370467  0.33178435685109153  0.5794921001463156  1.0000
  H   H55       1.0  0.5382224104635407  0.3423984660205946  0.6831812997686144  1.0000
  H   H56       1.0  0.4726795685685179  0.3461191645388987  0.7164006638038756  1.0000
  C   C89       1.0  0.23280149419670046  0.14483621122932688  0.755223632984216  1.0000
  C   C90       1.0  0.22220338684201393  0.18370494720827898  0.7631086255653692  1.0000
  C   C91       1.0  0.19527959533934328  0.18527109163989064  0.7928566799876645  1.0000
  C   C92       1.0  0.17691932356548626  0.1467613123922762  0.8148885251163093  1.0000
  C   C93       1.0  0.19136027536831965  0.10843733477529893  0.8081653241641309  1.0000
  C   C94       1.0  0.2191026503868145  0.10730361237352692  0.7790361417960109  1.0000
  H   H57       1.0  0.23478799406201886  0.21379355907679953  0.7456114247609552  1.0000
  H   H58       1.0  0.19004263171608535  0.2181459613567825  0.795928535820208  1.0000
  H   H59       1.0  0.18745856157987542  0.5979065860157403  0.795650043395829  1.0000
  H   H60       1.0  0.2299231077769778  0.07690340611950974  0.774751859348242  1.0000
  C   C95       1.0  0.14157149330601715  0.6537278478893612  0.7611591785947165  1.0000
  C   C96       1.0  0.15223200986155583  0.6699746833169713  0.7974588376268963  1.0000
  C   C97       1.0  0.6548627749162805  0.7157023880923747  0.8410302432956371  1.0000
  C   C98       1.0  0.6116201741322538  0.7129873528754356  0.8419051033358578  1.0000
  C   C99       1.0  0.5856860230938548  0.6967296381909609  0.8114762896539695  1.0000
  C   C100      1.0  0.09872935651614274  0.6387374932407168  0.7495384492501773  1.0000
  C   C101      1.0  0.20230414925555998  0.6901756720403414  0.8090092406016429  1.0000
  C   C102      1.0  0.6522728354650097  0.21968830193504052  0.8539927997758203  1.0000
  C   C103      1.0  0.6487197495219307  0.24377534327313502  0.8866157961952398  1.0000
  C   C104      1.0  0.6361897290432119  0.2830254208627558  0.8864779565104461  1.0000
  C   C105      1.0  0.627253091824107  0.3007555778184805  0.8530138567083064  1.0000
  C   C106      1.0  0.6290850352968871  0.2777914413124412  0.8200223501111735  1.0000
  C   C107      1.0  0.6398367719814451  0.23683710878633868  0.8209337798636864  1.0000
  C   C108      1.0  0.19036308761495888  0.6466979279287913  0.8742749248240237  1.0000
  C   C109      1.0  0.19620332293389237  0.6462800804851552  0.9127856449224846  1.0000
  C   C110      1.0  0.2015026504195328  0.16602163453526608  0.9572994239464471  1.0000
  C   C111      1.0  0.22411683801588786  0.19276883242090292  0.9280239627291583  1.0000
  C   C112      1.0  0.20908122254955328  0.1847760366726916  0.8919915439021907  1.0000
  C   C113      1.0  0.17281324513640478  0.14683536501687433  0.8839546463622855  1.0000
  C   C114      1.0  0.20079500599945269  0.18428470183204737  0.9997427946437137  1.0000
  C   C115      1.0  0.5728611731603771  0.613068651796115  0.9798404319923907  1.0000
  C   C116      1.0  0.6020990905381766  0.6052238303187251  0.006044037377135991  1.0000
  C   C117      1.0  0.140956576001549  0.6690900454239408  0.01666894532541141  1.0000
  C   C118      1.0  0.6635489114506379  0.6479187408035876  0.967907453565972  1.0000
  C   C119      1.0  0.6335124744839927  0.6544724840803645  0.9418501270303955  1.0000
  C   C120      1.0  0.589765956622225  0.6390784912743932  0.9486070846400744  1.0000
  C   C121      1.0  0.7399096316174772  0.24655996940631006  0.020742248663802032  1.0000
  C   C122      1.0  0.736792441488876  0.2838089082550285  9.723954746876373e-05  1.0000
  C   C123      1.0  0.7465671083059805  0.32647776580704563  0.01596005551790136  1.0000
  C   C124      1.0  0.7574310943155323  0.33206454467709867  0.053244283727178265  1.0000
  C   C125      1.0  0.7659344959785676  0.2963095479720984  0.07226897328348891  1.0000
  C   C126      1.0  0.22842750109257126  0.25060291406283874  0.04544649584456795  1.0000
  C   C127      1.0  0.2759879136157451  0.17729579971931164  0.02021058130816966  1.0000
  C   C128      1.0  0.3024033738147741  0.15555721382705356  0.03799471370133767  1.0000
  C   C129      1.0  0.2843103250082197  0.11584458531526365  0.05748074424348815  1.0000
  C   C130      1.0  0.2398927588007534  0.09492609095171134  0.0549714993692858  1.0000
  C   C131      1.0  0.2137412224054955  0.11477268859412426  0.035055071444004327  1.0000
  C   C132      1.0  0.23091953511025476  0.15735552977154077  0.01937229098024118  1.0000
  H   H61       1.0  0.16686716234458626  0.6510264326860691  0.7420641626686133  1.0000
  H   H62       1.0  0.6734944707401108  0.7276081346594384  0.8662830361607857  1.0000
  H   H63       1.0  0.5970586619809412  0.7200173618211043  0.8678836643372667  1.0000
  H   H64       1.0  0.09401206045259607  0.6254662039097929  0.7212278658264438  1.0000
  H   H65       1.0  0.6548823494580409  0.22981559470405946  0.9134270214149937  1.0000
  H   H66       1.0  0.631840934830059  0.2997046944839673  0.9124340130735212  1.0000
  H   H67       1.0  0.6186823243246498  0.28968718236944613  0.7938271838908033  1.0000
  H   H68       1.0  0.6377692516366193  0.21813219951112645  0.7948792663829014  1.0000
  H   H69       1.0  0.16627227942888909  0.6181169334265868  0.8608285229196669  1.0000
  H   H70       1.0  0.17725646773863796  0.6175074550279348  0.9295289470427213  1.0000
  H   H71       1.0  0.24897224198225348  0.22475907597324432  0.933143722450064  1.0000
  H   H72       1.0  0.2215739255172199  0.21227741798747723  0.8720104157167  1.0000
  H   H73       1.0  0.5911232585566939  0.5839940543397205  0.03064420153060876  1.0000
  H   H74       1.0  0.16062048710095547  0.6650136276495134  0.0400144870417829  1.0000
  H   H75       1.0  0.6439569794715985  0.6760855531299105  0.916892704918376  1.0000
  H   H76       1.0  0.5692793843285856  0.6460652794373699  0.9265217914703872  1.0000
  H   H77       1.0  0.7211859260371509  0.2801085652557393  0.9728668691637505  1.0000
  H   H78       1.0  0.7398984362908368  0.3544612245073429  0.0013237314366525421  1.0000
  H   H79       1.0  0.7712737081454804  0.2977071368271456  0.1016147608705702  1.0000
  H   H80       1.0  0.2264065215972142  0.22487223400484305  0.06723079215154248  1.0000
  H   H81       1.0  0.2920045359820496  0.2102273131738806  0.00741962117028061  1.0000
  H   H82       1.0  0.33738498598545175  0.1713693497155684  0.038382915262592965  1.0000
  H   H83       1.0  0.2255121277760874  0.06266006763857157  0.06989475503928855  1.0000
  H   H84       1.0  0.1849289054354952  0.6074688414407264  0.010483037838448839  1.0000
  C   C133      1.0  0.32623385905243435  0.5321441541106428  0.6039713029437449  1.0000
  C   C134      1.0  0.36344337289665873  0.5619285083136984  0.6196428311883414  1.0000
  C   C135      1.0  0.3995977161747587  0.5822402072107917  0.5976813124294893  1.0000
  C   C136      1.0  0.3993439715766827  0.5751161281984829  0.5586811207972714  1.0000
  C   C137      1.0  0.36095298360321093  0.5457466979242922  0.5434231116070558  1.0000
  C   C138      1.0  0.3251789667125885  0.5249729789449297  0.5656237400232028  1.0000
  H   H85       1.0  0.36440275961897683  0.5694853148470704  0.6493627550627198  1.0000
  H   H86       1.0  0.4267650103048479  0.6069317859265503  0.6112824323473899  1.0000
  H   H87       1.0  0.35716315622785777  0.5418625659154324  0.5135287783355915  1.0000
  H   H88       1.0  0.2967255225283307  0.5005528669463879  0.5530887678713591  1.0000
  C   C139      1.0  0.4482528358422521  0.5331570455034548  0.4998038840068559  1.0000
  C   C140      1.0  0.44276783623820143  0.5766791026439636  0.4946869373407419  1.0000
  C   C141      1.0  0.4503576524344148  0.5960004797683874  0.4591580553214897  1.0000
  C   C142      1.0  0.46684607339380096  0.575494963979748  0.4309206113223406  1.0000
  C   C143      1.0  0.47788467955798913  0.5363492477300315  0.43827674960265295  1.0000
  C   C144      1.0  0.465394738609573  0.5129066147807005  0.4714511047612468  1.0000
  C   C145      1.0  0.43569381632518833  0.6059086454356867  0.5296194517441524  1.0000
  C   C146      1.0  0.48593069931649313  0.625984999699122  0.5413752077186935  1.0000
  C   C147      1.0  0.5138845555082758  0.6618709438600549  0.5208736643967371  1.0000
  C   C148      1.0  0.5571107937304709  0.6799214381210759  0.5304014809762467  1.0000
  C   C149      1.0  0.5726528038636567  0.6639017866969064  0.5626953499850365  1.0000
  C   C150      1.0  0.5463715602038848  0.6269271660805331  0.5816159565140538  1.0000
  C   C151      1.0  0.5035604690942379  0.608866136793817  0.5711935885107816  1.0000
  C   C152      1.0  0.3817645994120738  0.6434849005047417  0.49753093573515705  1.0000
  C   C153      1.0  0.3490722933221732  0.663531565208797  0.5041669319887926  1.0000
  C   C154      1.0  0.3462971201680522  0.6839010796067099  0.5386156009680294  1.0000
  C   C155      1.0  0.38406701327402804  0.6968290948456397  0.5600145087685402  1.0000
  C   C156      1.0  0.41811674475588806  0.680033625651197  0.5517469407357151  1.0000
  C   C157      1.0  0.41503461857203583  0.6476592238776505  0.523306956791563  1.0000
  C   C158      1.0  0.3031256319211965  0.6964985788239969  0.5505232619013227  1.0000
  C   C159      1.0  0.3539833755834901  0.8451666292113539  0.5247556800092918  1.0000
  C   C160      1.0  0.3414187073517734  0.8139111029725185  0.49525236135387485  1.0000
  C   C161      1.0  0.32245350757763774  0.7675310891459718  0.5027013304423135  1.0000
  C   C162      1.0  0.3162055215980037  0.7510040275817658  0.5392260338578297  1.0000
  C   C163      1.0  0.32967031659735696  0.7833542171722694  0.5676997744594823  1.0000
  C   C164      1.0  0.34526932427410023  0.829023754786556  0.5606755766445912  1.0000
  C   C165      1.0  0.28591224297248796  0.6852610346796216  0.5927697187631699  1.0000
  C   C166      1.0  0.2992637992745571  0.6558506317230394  0.6164893967668384  1.0000
  C   C167      1.0  0.27224210802880777  0.6328730066218905  0.6447859149166134  1.0000
  C   C168      1.0  0.2323653250617471  0.6403305130431024  0.6514978636496249  1.0000
  C   C169      1.0  0.2225533872637321  0.6749428579210903  0.6320202722718496  1.0000
  C   C170      1.0  0.24811424809643798  0.6960927752071356  0.6018980815622572  1.0000
  C   C171      1.0  0.23051450673261897  0.677639356231741  0.5104991183249238  1.0000
  C   C172      1.0  0.1961299585597647  0.6468165103281888  0.49173885591903355  1.0000
  C   C173      1.0  0.19135889792846655  0.6002849183789135  0.4925602679182118  1.0000
  C   C174      1.0  0.22046513190470213  0.5849886985319132  0.5132193423085039  1.0000
  C   C175      1.0  0.2534267039743097  0.6152707742909755  0.5330598177544092  1.0000
  C   C176      1.0  0.2614959737097972  0.662484597562803  0.5291524846487291  1.0000
  H   H89       1.0  0.4454105634677296  0.5186577230768369  0.5275546695270398  1.0000
  H   H90       1.0  0.4487338459694598  0.6304265381064994  0.45409736975120985  1.0000
  H   H91       1.0  0.4759375883449284  0.5936402365283392  0.40467762317051137  1.0000
  H   H92       1.0  0.47273632070432525  0.48131709414768387  0.4772516237417454  1.0000
  H   H93       1.0  0.5021955579993582  0.6747730214656189  0.49609346473659516  1.0000
  H   H94       1.0  0.5776863189814908  0.7101511469219857  0.5161449192918784  1.0000
  H   H95       1.0  0.5579479554018163  0.6143579252047281  0.6066690224889912  1.0000
  H   H96       1.0  0.48382265239667016  0.5804096487282004  0.5880691042062285  1.0000
  H   H97       1.0  0.3766497452589381  0.6213334080020129  0.4733696081291906  1.0000
  H   H98       1.0  0.3237431099345899  0.6594621864610101  0.483637258118919  1.0000
  H   H99       1.0  0.3865891642524813  0.7159460416618287  0.5858524170303637  1.0000
  H   H100      1.0  0.44336314209374394  0.6873729941483264  0.5730642699472663  1.0000
  H   H101      1.0  0.3454186095372906  0.8241202403552266  0.4661822531363807  1.0000
  H   H102      1.0  0.3148050478414877  0.7428613725103145  0.48018845294428697  1.0000
  H   H103      1.0  0.32820446113732915  0.7730895692932744  0.5968936570878114  1.0000
  H   H104      1.0  0.352932708113945  0.8517401760867046  0.584690625401389  1.0000
  H   H105      1.0  0.32910695404765217  0.6475708661064823  0.6106607472384228  1.0000
  H   H106      1.0  0.2812871593996493  0.606229993914842  0.6598048144495341  1.0000
  H   H107      1.0  0.6444618338332936  0.5797908788259118  0.597405633059902  1.0000
  H   H108      1.0  0.23786214134241956  0.7200997039892977  0.5839986139226293  1.0000
  H   H109      1.0  0.2340360100909084  0.7136848509636554  0.5096636410517869  1.0000
  H   H110      1.0  0.17359706257084082  0.6601161885152186  0.4759801229758942  1.0000
  H   H111      1.0  0.2167005017579543  0.5484790880530462  0.5158270441004157  1.0000
  H   H112      1.0  0.27585259330312134  0.6011987067074663  0.5482812572323328  1.0000
  C   C177      1.0  0.41600351897430443  0.5002458637456048  0.13167787742953685  1.0000
  C   C178      1.0  0.446371613745731  0.4848709325082406  0.15030873931500865  1.0000
  C   C179      1.0  0.463958740990311  0.5063035403587388  0.1829401748988031  1.0000
  C   C180      1.0  0.4519755997413882  0.5431714109048904  0.19782779692127528  1.0000
  C   C181      1.0  0.42865654439735446  0.5633765281905346  0.1744447494278496  1.0000
  C   C182      1.0  0.4082184741446344  0.5401560693869254  0.14324515873303367  1.0000
  H   H113      1.0  0.45299081400537927  0.45348599012264657  0.14234498119968753  1.0000
  H   H114      1.0  0.4828435874246377  0.4882901141076652  0.19789221587600533  1.0000
  H   H115      1.0  0.4190585296998664  0.5934641975834357  0.18331712424089153  1.0000
  H   H116      1.0  0.38421134439225446  0.5528009112055918  0.12870447851470312  1.0000
  C   C183      1.0  0.5069441076977803  0.6353712066566646  0.22751340152719488  1.0000
  C   C184      1.0  0.47916922285559355  0.6068080796761126  0.25295185600859604  1.0000
  C   C185      1.0  0.4760526256758178  0.6239648815586316  0.2888585312863744  1.0000
  C   C186      1.0  0.4966126961613309  0.6695505103040257  0.2974439745106624  1.0000
  C   C187      1.0  0.5231435680967813  0.6971547439314001  0.2706994186894719  1.0000
  C   C188      1.0  0.5276949080451363  0.6801626867332123  0.23586901817500044  1.0000
  C   C189      1.0  0.453069911864066  0.5555069600208378  0.2422434003330072  1.0000
  C   C190      1.0  0.4738835890964276  0.5254892574062515  0.2683122603932298  1.0000
  C   C191      1.0  0.45372970676349056  0.5024119925913482  0.3003751776036205  1.0000
  C   C192      1.0  0.47046521334017294  0.47194441272240206  0.3195095762968076  1.0000
  C   C193      1.0  0.5071291110099897  0.46254872962053445  0.30630228404974597  1.0000
  C   C194      1.0  0.5294913496848647  0.4892718920432858  0.27671457375057773  1.0000
  C   C195      1.0  0.5149718049761142  0.5226217226303962  0.25995608113446583  1.0000
  C   C196      1.0  0.37950877998306054  0.5756767456165578  0.2529045966880954  1.0000
  C   C197      1.0  0.33478839765231333  0.5643643033486279  0.2501407703552438  1.0000
  C   C198      1.0  0.3104581628570519  0.5205803053284143  0.23916676230731787  1.0000
  C   C199      1.0  0.3321774228978291  0.4878697446662136  0.23614835451581687  1.0000
  C   C200      1.0  0.37584500834574885  0.4978653318656339  0.24238405307259253  1.0000
  C   C201      1.0  0.4009930869038141  0.542248871528796  0.2502983014235794  1.0000
  C   C202      1.0  0.2589816935824174  0.505606546382745  0.24296129191585067  1.0000
  C   C203      1.0  0.2695612767870824  0.5314417929137403  0.3620260864186586  1.0000
  C   C204      1.0  0.24152879283480316  0.5486881788552161  0.34073126164544093  1.0000
  C   C205      1.0  0.23384545782636387  0.5358442452030278  0.3036748908742921  1.0000
  C   C206      1.0  0.25287590024551054  0.5056049902582701  0.28722414645239297  1.0000
  C   C207      1.0  0.2739162634931916  0.48305570284973104  0.31126732575710775  1.0000
  C   C208      1.0  0.28489943426437786  0.49792725219480927  0.3472069137759491  1.0000
  C   C209      1.0  0.23982438642722445  0.4587720916841519  0.22091763195708078  1.0000
  C   C210      1.0  0.24958112709715058  0.45422793170255626  0.1827573263373421  1.0000
  C   C211      1.0  0.24217028580052097  0.4116839206787552  0.16672572707940714  1.0000
  C   C212      1.0  0.2221856636826099  0.3731286252318731  0.18784051634595555  1.0000
  C   C213      1.0  0.20885038879840187  0.3772494750721505  0.2240977903991049  1.0000
  C   C214      1.0  0.21727264288720666  0.41992390114234496  0.24022925310214538  1.0000
  C   C215      1.0  0.18994765257002613  0.524929906011232  0.22308227761929889  1.0000
  C   C216      1.0  0.1670772059352124  0.5548375277342881  0.21319945352507585  1.0000
  C   C217      1.0  0.18966267284257993  0.5974667443485249  0.19896933455574975  1.0000
  C   C218      1.0  0.2340500498989805  0.609041760868943  0.19243423482081212  1.0000
  C   C219      1.0  0.2563391683804324  0.5782262228026023  0.20067657750883636  1.0000
  C   C220      1.0  0.23574418017617071  0.5373620360336555  0.2197935352623149  1.0000
  H   H117      1.0  0.5123295963874648  0.623604437877367  0.19998962952870167  1.0000
  H   H118      1.0  0.45451656165736826  0.6046110482170732  0.31050498790855535  1.0000
  H   H119      1.0  0.4920514854463823  0.6832043131259778  0.3246602796204221  1.0000
  H   H120      1.0  0.5482722137489751  0.7020408353047323  0.21469909303453458  1.0000
  H   H121      1.0  0.42488024295666477  0.5082660160291868  0.3117849278387818  1.0000
  H   H122      1.0  0.45346040962806594  0.4546646578211286  0.3443263456692417  1.0000
  H   H123      1.0  0.5601210656924653  0.4862770464439406  0.26549329818646084  1.0000
  H   H124      1.0  0.534687537308736  0.5423127370636154  0.23737962859814676  1.0000
  H   H125      1.0  0.39794423598894496  0.611452408226224  0.2562676036915804  1.0000
  H   H126      1.0  0.3190732150723765  0.59036819040097  0.25485882585189384  1.0000
  H   H127      1.0  0.316103757758938  0.45247547358032636  0.23104884878941148  1.0000
  H   H128      1.0  0.39135437890855806  0.47103539769989494  0.2386452219489355  1.0000
  H   H129      1.0  0.2299888229680046  0.5760831659573731  0.35095952886808546  1.0000
  H   H130      1.0  0.21735148623199002  0.5556571284499444  0.2873760514111451  1.0000
  H   H131      1.0  0.28886432395887873  0.4576939240692631  0.3002795337407025  1.0000
  H   H132      1.0  0.3062770723303938  0.483689402222332  0.36354513600618005  1.0000
  H   H133      1.0  0.2684167985833927  0.4843656685105677  0.1672855249829568  1.0000
  H   H134      1.0  0.25374873289980465  0.40885356278774987  0.13854735723088396  1.0000
  H   H135      1.0  0.193124669240187  0.34633344464796095  0.23971418276978396  1.0000
  H   H136      1.0  0.20521136438775103  0.42149188196510223  0.268230119193312  1.0000
  H   H137      1.0  0.17258261785613277  0.493282096662289  0.2373987573707304  1.0000
  H   H138      1.0  0.6543856232614526  0.48713084247455907  0.19965881428519697  1.0000
  H   H139      1.0  0.2519100082710618  0.642916487051103  0.18280233521400935  1.0000
  H   H140      1.0  0.2910163563149412  0.5893909314439301  0.19574838681924586  1.0000
  C   C221      1.0  0.5833560577797215  0.5874884427003004  0.4490338711261383  1.0000
  C   C222      1.0  0.5402274827706152  0.12209747335518983  0.4096004690559976  1.0000
  C   C223      1.0  0.5708689036342312  0.16434079698279036  0.4116933818210272  1.0000
  C   C224      1.0  0.6117122638478486  0.1714695662430612  0.4293846834060689  1.0000
  C   C225      1.0  0.6503739966113542  0.6344110661695925  0.47525154178484225  1.0000
  C   C226      1.0  0.6197347021841706  0.5918266059587044  0.471372339227079  1.0000
  H   H141      1.0  0.5095178554065204  0.11795260979984534  0.39472503531745406  1.0000
  H   H142      1.0  0.5616949023465108  0.19144230416088628  0.3974227548627005  1.0000
  H   H143      1.0  0.6791970224293826  0.6351007963616184  0.4910524705498572  1.0000
  H   H144      1.0  0.625671784791136  0.5626938410195057  0.4858736366783256  1.0000
  C   C227      1.0  0.23163493994115297  0.8740167312527558  0.512288221172449  1.0000
  C   C228      1.0  0.6770830644980871  0.24115099295046358  0.4607474312788039  1.0000
  C   C229      1.0  0.265367961328491  0.9068897208647855  0.4550875650378906  1.0000
  C   C230      1.0  0.3040427680971371  0.9272200742921725  0.4736987355398203  1.0000
  C   C231      1.0  0.3067979544883869  0.9194183843282038  0.5117818713099419  1.0000
  C   C232      1.0  0.26955589037162064  0.8959369405424281  0.5309275222222958  1.0000
  C   C233      1.0  0.6494276562421061  0.21988752555605248  0.4249259915612142  1.0000
  C   C234      1.0  0.1773873873577665  0.40552891731732327  0.44586355837588515  1.0000
  C   C235      1.0  0.1843484666895285  0.42988133689180213  0.4123460105327031  1.0000
  C   C236      1.0  0.1748408122059668  0.47096774947079845  0.41078757817809775  1.0000
  C   C237      1.0  0.1603446130976385  0.4897461997445896  0.4417311808868684  1.0000
  C   C238      1.0  0.1520086484866263  0.46426568296412946  0.4741010023750343  1.0000
  C   C239      1.0  0.5986134800107602  0.2685464883844256  0.44377345866564727  1.0000
  C   C240      1.0  0.7236341409629378  0.204995753127203  0.4002076791064899  1.0000
  C   C241      1.0  0.741603696752584  0.17790218752564946  0.3787384449361864  1.0000
  C   C242      1.0  0.7185652750488108  0.15221494370687694  0.34923793933556113  1.0000
  C   C243      1.0  0.6812676218163053  0.1626836834836305  0.33785913270310863  1.0000
  C   C244      1.0  0.6638293773644574  0.19178008106399222  0.35859415957277674  1.0000
  C   C245      1.0  0.6811275768768514  0.2078187919388236  0.39315535074368185  1.0000
  C   C246      1.0  0.7303994546903511  0.10767093546159145  0.33239336724282303  1.0000
  C   C247      1.0  0.30098496515824186  0.644869127881799  0.3782124036901373  1.0000
  C   C248      1.0  0.7569279955103914  0.49968758225775617  0.405802845087194  1.0000
  C   C249      1.0  0.7390371719955071  0.5315472991823832  0.3909386635678172  1.0000
  C   C250      1.0  0.7651380762582144  0.09000111161727076  0.3556320128771099  1.0000
  C   C251      1.0  0.28697793302734126  0.19006514190876697  0.3425062992190076  1.0000
  C   C252      1.0  0.31079306512683813  0.16308617883479148  0.35695977473879525  1.0000
  C   C253      1.0  0.7460138884399564  0.12596626399979183  0.29128338451682534  1.0000
  C   C254      1.0  0.7174742144370156  0.11310408689722062  0.2611839795510458  1.0000
  C   C255      1.0  0.7262751707361975  0.13452252669782183  0.22722590732748246  1.0000
  C   C256      1.0  0.7665247125257412  0.16693113124850334  0.22046838710684524  1.0000
  C   C257      1.0  0.7976166629668497  0.17677068019613174  0.24894465945781025  1.0000
  C   C258      1.0  0.7871144504912089  0.1576034700588751  0.2846670796467318  1.0000
  C   C259      1.0  0.6863777604585286  0.025041388094063644  0.3114136046062765  1.0000
  C   C260      1.0  0.6526855039603139  0.984606247735475  0.3155994301363357  1.0000
  C   C261      1.0  0.6074721936364157  0.46039866624956727  0.32035911884390295  1.0000
  C   C262      1.0  0.6226528075707867  0.01755027774921558  0.3654608263193321  1.0000
  C   C263      1.0  0.6563655402468469  0.0579323534102818  0.3616744545696952  1.0000
  C   C264      1.0  0.6885432406617411  0.06277311275685982  0.3344243928024351  1.0000
  H   H145      1.0  0.21901611609878882  0.36589675427793744  0.5354987362588187  1.0000
  H   H146      1.0  0.7751653573468559  0.7666028154488413  0.425263558136219  1.0000
  H   H147      1.0  0.3323782897275051  0.9475786950986047  0.4587557884862757  1.0000
  H   H148      1.0  0.26977213158376223  0.8893902623129973  0.560745903014384  1.0000
  H   H149      1.0  0.1997022680590061  0.41967532654302186  0.388142487104861  1.0000
  H   H150      1.0  0.18177882235351078  0.49078880005146747  0.3855572897512828  1.0000
  H   H151      1.0  0.13996724808862346  0.4765673505613675  0.4993115994183073  1.0000
  H   H152      1.0  0.5870442776059863  0.2461118767921692  0.4675100149980661  1.0000
  H   H153      1.0  0.7546298416972577  0.6694848476403656  0.4394976153822535  1.0000
  H   H154      1.0  0.7726088638927106  0.6247182521508842  0.39376015752389876  1.0000
  H   H155      1.0  0.15207226891958933  0.263165996332266  0.3583297324223563  1.0000
  H   H156      1.0  0.14398354201965494  0.32260404895087585  0.39954942428523055  1.0000
  H   H157      1.0  0.7439441797203439  0.4837724103938526  0.4320373940746481  1.0000
  H   H158      1.0  0.713738755324767  0.5391039305888476  0.4073669035513827  1.0000
  H   H159      1.0  0.2895628420243428  0.19714159389025643  0.31265134871462735  1.0000
  H   H160      1.0  0.32909916063846095  0.1473542645442023  0.338171381784988  1.0000
  H   H161      1.0  0.6853763126233473  0.08940648198275758  0.26490340059663997  1.0000
  H   H162      1.0  0.7010471439984896  0.12413760473712365  0.2058686327378889  1.0000
  H   H163      1.0  0.8290152594626568  0.20239777898035463  0.24422604135020187  1.0000
  H   H164      1.0  0.8095839044393713  0.17007382576889762  0.3079563602672693  1.0000
  H   H165      1.0  0.7130836835887531  0.02613809466509731  0.2917137818999564  1.0000
  H   H166      1.0  0.6324236168462154  0.4525283461186243  0.2669116404124392  1.0000
  H   H167      1.0  0.5976034300371426  0.015672934695178498  0.3859539304769134  1.0000
  H   H168      1.0  0.6579860684198211  0.08378086273128371  0.38273298274040957  1.0000
  C   C265      1.0  0.7768461891069574  0.19217155381601153  0.18201467987233166  1.0000
  C   C266      1.0  0.22301627501052088  0.3256987473454349  0.1745769630030598  1.0000
  H   H169      1.0  0.2903258871482763  0.34053814800210525  0.19336797985450388  1.0000
  H   H170      1.0  0.7828527236089066  0.16884001007518878  0.16031196215431653  1.0000
  H   H171      1.0  0.23035757500889192  0.32486284788247094  0.14436194148534098  1.0000
  H   H172      1.0  0.19020908686945842  0.3008602694773538  0.176683941042048  1.0000
  C   C267      1.0  0.5216667840435294  0.4252093006787629  0.32617932920794357  1.0000
  C   C268      1.0  0.5662706513099988  0.4183822871276243  0.3145079648771536  1.0000
  H   H173      1.0  0.5304273782065536  0.9425820501271127  0.37766104495096287  1.0000
  H   H174      1.0  0.5086096680092826  0.9049956747017569  0.3420393321235844  1.0000
  H   H175      1.0  0.5639212755608272  0.40997369363439484  0.28431826085256023  1.0000
  H   H176      1.0  0.5682845186899795  0.38688612886395723  0.32876171350673006  1.0000
  C   C269      1.0  0.2906533688619384  0.5583718672201642  0.3971161318904045  1.0000
  C   C270      1.0  0.32230377094975854  0.607881464277196  0.38930990484341915  1.0000
  H   H177      1.0  0.26377163485560123  0.5612987658749695  0.4157160501731674  1.0000
  H   H178      1.0  0.308487619622894  0.5375334500467183  0.41245571966957967  1.0000
  H   H179      1.0  0.34071699910528047  0.6184038808726735  0.41547694051587236  1.0000
  H   H180      1.0  0.34688000952611076  0.606154832786428  0.36807415422082734  1.0000
  C   C271      1.0  0.5592642903700122  0.5390206364521682  0.4351936415509427  1.0000
  C   C272      1.0  0.5141130756310833  0.5271412395768537  0.4150324778587827  1.0000
  H   H181      1.0  0.5819113917542632  0.5298555405521566  0.4153137833379534  1.0000
  H   H182      1.0  0.5283457385157772  0.014542605167510159  0.4092460241522426  1.0000
  H   H183      1.0  0.5183841525555906  0.5459505857864431  0.3878724338448572  1.0000
  H   H184      1.0  0.5032573644991963  0.4902700105314413  0.4072318769213808  1.0000
  C   C273      1.0  0.15079269978058193  0.5654215416634055  0.4757747699760996  1.0000
  C   C274      1.0  0.1571155486227727  0.5390098107254164  0.440096796052887  1.0000
  H   H185      1.0  0.12708230492629888  0.5843467560080627  0.4679882343126562  1.0000
  H   H186      1.0  0.13175455173915684  0.542161085203572  0.49757594461182436  1.0000
  H   H187      1.0  0.18673535876678762  0.5608749200509688  0.42539577171142917  1.0000
  H   H188      1.0  0.12951545294138178  0.5379012762959627  0.4211452459211608  1.0000
  C   C275      1.0  0.351175720536414  0.9301013904127695  0.5315998423175137  1.0000
  C   C276      1.0  0.3770503541336545  0.8964749799702748  0.519168953192963  1.0000
  H   H189      1.0  0.3710799224406957  0.9661049638607367  0.5252198340499235  1.0000
  H   H190      1.0  0.34787479469236254  0.9296148472463881  0.562450614218158  1.0000
  H   H191      1.0  0.387991121748049  0.9038023122717107  0.48950529041441865  1.0000
  H   H192      1.0  0.40814945844417827  0.9042689940077402  0.5346660720404736  1.0000
  C   C277      1.0  0.5497216572127871  0.33748127751955154  0.6059094976952306  1.0000
  C   C278      1.0  0.5659784657596457  0.29620020803852265  0.6173417523687255  1.0000
  H   H193      1.0  0.5433616883011768  0.3373293130492749  0.575376600986049  1.0000
  H   H194      1.0  0.5760336228653312  0.3705586539896717  0.6092260892946525  1.0000
  H   H195      1.0  0.5725794284110182  0.29783143796038297  0.6477452485574885  1.0000
  H   H196      1.0  0.597733401618814  0.2965692284028104  0.6050233854358431  1.0000
  C   C279      1.0  0.6506874005540247  0.5750714979991519  0.6872883597645058  1.0000
  C   C280      1.0  0.19717971497794884  0.6072468638783475  0.6765031076931034  1.0000
  H   H197      1.0  0.6509336995602855  0.6075007508422696  0.6729080236693026  1.0000
  H   H198      1.0  0.6853414151774833  0.5769585024494985  0.6927063032933324  1.0000
  H   H199      1.0  0.6251197098150514  0.500639525924124  0.6796481029502311  1.0000
  H   H200      1.0  0.2101001673077731  0.6076544673565467  0.7056238508968483  1.0000
  C   C281      1.0  0.2883020065352565  0.5069590000698352  0.630790967327874  1.0000
  C   C282      1.0  0.2737938089398997  0.4536575283561415  0.6308022195470407  1.0000
  H   H201      1.0  0.2599781645908726  0.5180825957715911  0.6220001711037914  1.0000
  H   H202      1.0  0.2951925765776561  0.5181786240828021  0.660207081284748  1.0000
  H   H203      1.0  0.2629388591867167  0.44032386591594613  0.6026097844245589  1.0000
  H   H204      1.0  0.24406850811996617  0.4423374369678739  0.6492136631587594  1.0000
  C   C283      1.0  0.6118169322407581  0.3440196522769908  0.852721299009969  1.0000
  C   C284      1.0  0.5613854387390538  0.3331949935381839  0.8588790759490144  1.0000
  H   H205      1.0  0.6285989067782902  0.36960937833815877  0.8749191143713244  1.0000
  H   H206      1.0  0.6204632105358926  0.3621761561841651  0.8252743234072893  1.0000
  H   H207      1.0  0.5527153384651942  0.32557884464423  0.8890406494256906  1.0000
  H   H208      1.0  0.5418364227845538  0.30169502627057737  0.8440767816350552  1.0000
  C   C285      1.0  0.25989756929306074  0.1413700417146122  0.7210900261416503  1.0000
  C   C286      1.0  0.30904347139534244  0.16440715311448084  0.7258722192875511  1.0000
  H   H209      1.0  0.25441189855633145  0.1042871607407736  0.7156720826128236  1.0000
  H   H210      1.0  0.24596329190504057  0.15411970929235097  0.6965826927963038  1.0000
  H   H211      1.0  0.32610879058073233  0.1475010004926134  0.7063243015399832  1.0000
  H   H212      1.0  0.319081521747328  0.1554267845131001  0.7539436930539896  1.0000
  C   C287      1.0  0.5099103234995255  0.6646303098074994  0.8469460975225958  1.0000
  C   C288      1.0  0.53505668570593  0.6906792937520971  0.8124974285433588  1.0000
  H   H213      1.0  0.5237872229489173  0.6804606027141942  0.8737516966327663  1.0000
  H   H214      1.0  0.4763515087741014  0.6681622906059514  0.8466591659338417  1.0000
  H   H215      1.0  0.5299990403135055  0.7248666303235457  0.8115972510100128  1.0000
  H   H216      1.0  0.5188970736340335  0.6732693447329876  0.7866510811171602  1.0000
  C   C289      1.0  0.6836818512417555  0.5752118810117178  0.16106304778370206  1.0000
  C   C290      1.0  0.721008992414348  0.5520735236220967  0.16049199766098576  1.0000
  H   H217      1.0  0.698029311237801  0.613412480820906  0.15811496636199385  1.0000
  H   H218      1.0  0.669535850033483  0.5720573229643044  0.19025130430244808  1.0000
  H   H219      1.0  0.18681667685942072  0.6654083491687054  0.21130795548313244  1.0000
  H   H220      1.0  0.7423409827421746  0.5693474653475679  0.183975379062151  1.0000
  C   C291      1.0  0.48931556520712766  0.2799289693298985  0.3113714087844009  1.0000
  C   C292      1.0  0.5228401999661535  0.2533956354602163  0.31908199196846826  1.0000
  H   H221      1.0  0.5030659424338192  0.317872395600492  0.3185503246128357  1.0000
  H   H222      1.0  0.4609645117627888  0.26748526434393405  0.33091932653196887  1.0000
  H   H223      1.0  0.5534805066442267  0.2717484374376574  0.3049379524757683  1.0000
  H   H224      1.0  0.5300694344505169  0.25532551612164134  0.3493138918149372  1.0000
  C   C293      1.0  0.3452748086986669  0.4357613984178644  0.12262265405503392  1.0000
  C   C294      1.0  0.38508133311499726  0.47010304599827485  0.10281874832142068  1.0000
  H   H225      1.0  0.31725909476300224  0.4272230022612629  0.10359796449872327  1.0000
  H   H226      1.0  0.3350660698965219  0.45443817827654104  0.14646048035995407  1.0000
  H   H227      1.0  0.4023998649077472  0.4507615563418451  0.08579132766722153  1.0000
  H   H228      1.0  0.37507775461170656  0.49162807613049014  0.08222718724612954  1.0000
  C   C295      1.0  0.7394271061450952  0.3641843833374041  0.07536614660915752  1.0000
  C   C296      1.0  0.6905672923337569  0.33879858417407294  0.08322582169718529  1.0000
  H   H229      1.0  0.7568388178784468  0.374056136541775  0.10254869506141673  1.0000
  H   H230      1.0  0.7422188672613433  0.39648110826199784  0.05956521784414237  1.0000
  H   H231      1.0  0.6872036826964046  0.3294419510824324  0.11361525261198979  1.0000
  H   H232      1.0  0.6776819777133695  0.30383511469076374  0.06995101613512267  1.0000
  C   C297      1.0  0.31143009235147223  0.09228855352154275  0.08107946089111318  1.0000
  C   C298      1.0  0.36183622127170056  0.11636012194760537  0.08339741803947942  1.0000
  H   H233      1.0  0.29673853646109694  0.08396411309337126  0.1095363231640154  1.0000
  H   H234      1.0  0.30692829957942536  0.058154926739715895  0.06901426888948436  1.0000
  H   H235      1.0  0.3744285357010566  0.12219644588325784  0.053970051863438506  1.0000
  H   H236      1.0  0.3786053590337541  0.09113474561104695  0.09276770355065356  1.0000
  C   C299      1.0  0.5227125112884428  0.5908189973265244  0.9819052142095032  1.0000
  C   C300      1.0  0.5042251125924171  0.544448505912444  0.9609901518331659  1.0000
  H   H237      1.0  0.512476600143751  0.5850152694371766  0.011836117193259499  1.0000
  H   H238      1.0  0.5055216643212079  0.6154240007901082  0.9708808524808057  1.0000
  H   H239      1.0  0.5176464948866928  0.5461479637591348  0.9316246728625426  1.0000
  H   H240      1.0  0.4684215508933646  0.5385328366192633  0.9580730140141664  1.0000
  C   C301      1.0  0.6269530036275126  0.887224961608703  0.010671512509493164  1.0000
  C   C302      1.0  0.6302857453411497  0.8922959888618782  0.0492553720325386  1.0000
  C   C303      1.0  0.612105604879971  0.9228778637314523  0.06708170024758209  1.0000
  C   C304      1.0  0.5914859403723269  0.9498329893156755  0.046639231076251564  1.0000
  C   C305      1.0  0.5946327695842536  0.9479436244827799  0.0075715261290327796  1.0000
  C   C306      1.0  0.6107703340460788  0.9166553142998471  0.9900039989548259  1.0000
  H   H241      1.0  0.6422480768272829  0.8683187890740609  0.06559359426276945  1.0000
  H   H242      1.0  0.612310293470894  0.9241376171942092  0.09752457920342916  1.0000
  H   H243      1.0  0.5782352285465279  0.9668627147130503  0.9900461947767015  1.0000
  H   H244      1.0  0.6090424702323382  0.9140623214508411  0.9599465085054428  1.0000
  C   C307      1.0  0.5658882389716348  0.042481144836146845  0.020790070595261056  1.0000
  C   C308      1.0  0.5417735871503289  0.00807655443044153  0.04468134494122378  1.0000
  C   C309      1.0  0.501288300412053  0.011310461007549844  0.05736540899702813  1.0000
  C   C310      1.0  0.48893622218436966  0.05021349390305185  0.05145518087965284  1.0000
  C   C311      1.0  0.516026558854769  0.08543702319311008  0.03045853991435621  1.0000
  C   C312      1.0  0.5514772253499506  0.07877007354838406  0.011630764193465204  1.0000
  C   C313      1.0  0.5621476791380228  0.9755353084190619  0.06910709969761086  1.0000
  C   C314      1.0  0.5879847093126539  0.009720936725282847  0.10107746740535428  1.0000
  C   C315      1.0  0.5654708458357889  0.024739657860429975  0.1296187213220077  1.0000
  C   C316      1.0  0.5829496301006308  0.03502974445419493  0.1648466064785472  1.0000
  C   C317      1.0  0.6251196187831172  0.03505793778142752  0.17133351082822235  1.0000
  C   C318      1.0  0.6512504391416577  0.032249504134293394  0.14089625798195882  1.0000
  C   C319      1.0  0.6332975194970761  0.020820922085589944  0.10549396342833317  1.0000
  C   C320      1.0  0.4951080523646885  0.901487264025114  0.06283961362168888  1.0000
  C   C321      1.0  0.46507465630013467  0.863079422114013  0.07743092882627  1.0000
  C   C322      1.0  0.46462649446764726  0.8517340479404463  0.11522994606242931  1.0000
  C   C323      1.0  0.4956655682685706  0.8817965830108759  0.137731571341289  1.0000
  C   C324      1.0  0.5265685261711796  0.9188209960824014  0.123129003917541  1.0000
  C   C325      1.0  0.5257596781679617  0.9314302086312398  0.08605575481764194  1.0000
  C   C326      1.0  0.4262929364344701  0.8105455153008909  0.1355345755489663  1.0000
  C   C327      1.0  0.34990459823809955  0.9065736575034276  0.13814227734087803  1.0000
  C   C328      1.0  0.3422705871861659  0.8742996678468997  0.10953351010922385  1.0000
  C   C329      1.0  0.36165241186314584  0.8396964902272271  0.11122696909383101  1.0000
  C   C330      1.0  0.3911313027471222  0.8382140608496733  0.1395797483394401  1.0000
  C   C331      1.0  0.3924131959133914  0.8668334211215267  0.17003669256924558  1.0000
  C   C332      1.0  0.3704406994730425  0.8996067085209337  0.16998043147341146  1.0000
  C   C333      1.0  0.442325540623337  0.7918772594938487  0.17317887477158167  1.0000
  C   C334      1.0  0.4839188794483066  0.7862338697077635  0.17110284033530232  1.0000
  C   C335      1.0  0.5045494585410173  0.7774925378024836  0.20298947115857738  1.0000
  C   C336      1.0  0.48322585968383597  0.7706929492901892  0.23708538306693427  1.0000
  C   C337      1.0  0.44099200139794287  0.7722070447594664  0.2390325795937535  1.0000
  C   C338      1.0  0.4208099348279164  0.7833769226246892  0.20789853307558426  1.0000
  C   C339      1.0  0.3683880275341199  0.7316914378882009  0.12212755641169348  1.0000
  C   C340      1.0  0.3550748139266186  0.689199407186205  0.10504387466166021  1.0000
  C   C341      1.0  0.380525798739481  0.6769718317307487  0.0783761152362834  1.0000
  C   C342      1.0  0.41778869022165543  0.7096360003232479  0.06660629398778384  1.0000
  C   C343      1.0  0.4325231062740031  0.7515064436658339  0.08427790418928338  1.0000
  C   C344      1.0  0.40775956616912473  0.7636109844598749  0.11261380510614227  1.0000
  H   H245      1.0  0.5987859736644586  0.044768578891436484  0.011577316152422634  1.0000
  H   H246      1.0  0.48071927320900276  0.9860886918674993  0.07621850221104465  1.0000
  H   H247      1.0  0.4601816381475285  0.05409380142278608  0.06620965326215322  1.0000
  H   H248      1.0  0.5732203419102018  0.10557910505223589  0.9944767560736394  1.0000
  H   H249      1.0  0.5300830792922847  0.0193896969441818  0.12729232500926635  1.0000
  H   H250      1.0  0.5602813598977953  0.03474143901107363  0.18750013671615928  1.0000
  H   H251      1.0  0.6852307531153036  0.03399799180225105  0.14464606001930336  1.0000
  H   H252      1.0  0.6538421157632519  0.01435381193028129  0.08278979820447074  1.0000
  H   H253      1.0  0.49332802642608165  0.9067131405210779  0.032821505939389484  1.0000
  H   H254      1.0  0.44040023573806136  0.8426865431792522  0.05898010244746765  1.0000
  H   H255      1.0  0.49727975310325256  0.8760442129603052  0.16773561374962975  1.0000
  H   H256      1.0  0.5517658537796643  0.937376650131349  0.14143636450196628  1.0000
  H   H257      1.0  0.3224121097809186  0.8775822041571535  0.0858841584753478  1.0000
  H   H258      1.0  0.3578736127804506  0.8163888553324254  0.0879658190212107  1.0000
  H   H259      1.0  0.41277445205827223  0.8665034480474377  0.19418545357697378  1.0000
  H   H260      1.0  0.3749553719893678  0.9242340912531055  0.19278024056019216  1.0000
  H   H261      1.0  0.5025162063945765  0.7919781470375498  0.14524524068993672  1.0000
  H   H262      1.0  0.5386192794846377  0.7784583100887811  0.20143807144095127  1.0000
  H   H263      1.0  0.4233797812345166  0.7673138249106217  0.26556193672337847  1.0000
  H   H264      1.0  0.3878660699731704  0.7851865395161871  0.21092172306023116  1.0000
  H   H265      1.0  0.34723749010778593  0.7395535435174934  0.14354615559574624  1.0000
  H   H266      1.0  0.32364299897076276  0.6648720206571497  0.11066717119028135  1.0000
  H   H267      1.0  0.43753957520703907  0.702508524860763  0.04379241962704472  1.0000
  H   H268      1.0  0.4630464152290969  0.7752716222759257  0.07518892415728007  1.0000
  C   C345      1.0  0.708659156869076  0.934394577871706  0.8103257502441615  1.0000
  C   C346      1.0  0.6723960093538645  0.9106689673901872  0.8313280173190416  1.0000
  C   C347      1.0  0.6311358035885208  0.9131243932253741  0.8222924853280806  1.0000
  C   C348      1.0  0.6249880987982618  0.9384757747219458  0.7913742001124353  1.0000
  C   C349      1.0  0.6611025203383475  0.9565837620610651  0.7678317445606442  1.0000
  C   C350      1.0  0.7025409269098457  0.9561474176250413  0.7781134598243311  1.0000
  H   H269      1.0  0.6754325952793787  0.8894799735847705  0.8551180216925028  1.0000
  H   H270      1.0  0.6034660808891439  0.8955912589124313  0.8400822438308321  1.0000
  H   H271      1.0  0.6573026773054855  0.9734208506759491  0.7417069047100666  1.0000
  H   H272      1.0  0.7301038317253292  0.9724135565728039  0.7595191676511517  1.0000
  C   C351      1.0  0.6039496362878044  0.024741888505840803  0.7583348715838433  1.0000
  C   C352      1.0  0.5743525316394809  0.9820916441989356  0.7545653781629567  1.0000
  C   C353      1.0  0.5429620126105936  0.9757100486139508  0.7262885513967237  1.0000
  C   C354      1.0  0.5475441289832969  0.00774311386112525  0.6986840447257086  1.0000
  C   C355      1.0  0.5784326217814274  0.049903219812917454  0.7019021794074206  1.0000
  C   C356      1.0  0.6079501843357152  0.057101080267891735  0.7309554092961646  1.0000
  C   C357      1.0  0.576333809255459  0.941170388914868  0.7818604488068842  1.0000
  C   C358      1.0  0.5490319071060207  0.9511388748358399  0.8175159182917631  1.0000
  C   C359      1.0  0.5040682053746629  0.9433630154074962  0.8150966911708956  1.0000
  C   C360      1.0  0.48015270532776244  0.9567901081639891  0.8421948479794036  1.0000
  C   C361      1.0  0.5012491711360058  0.9820664255825589  0.8720807420864927  1.0000
  C   C362      1.0  0.5457953158107217  0.9894488375283675  0.8757630308088364  1.0000
  C   C363      1.0  0.5697441732256637  0.9751159888857547  0.8488449095069975  1.0000
  C   C364      1.0  0.5710011849394522  0.8867653253705697  0.7243897394123219  1.0000
  C   C365      1.0  0.5472453855684011  0.8508777741839421  0.7034099767757753  1.0000
  C   C366      1.0  0.5097279615125844  0.8186696719878503  0.71658913847492  1.0000
  C   C367      1.0  0.4992468335488013  0.822748363524082  0.7535976873146097  1.0000
  C   C368      1.0  0.522541769250219  0.8583874253703532  0.7757251763061724  1.0000
  C   C369      1.0  0.5574159307318767  0.8930484552772836  0.7608722470059625  1.0000
  C   C370      1.0  0.4795157235030723  0.7805280986345486  0.689853865734542  1.0000
  C   C371      1.0  0.41043509133835726  0.8751681339592772  0.652772177470268  1.0000
  C   C372      1.0  0.44907982227366045  0.8763844302315065  0.6361695280896166  1.0000
  C   C373      1.0  0.4697463099540031  0.8450439108677952  0.6463977953122612  1.0000
  C   C374      1.0  0.45190329036767113  0.8111493808028897  0.6729474064363864  1.0000
  C   C375      1.0  0.41256667127349905  0.8104768870158312  0.6895359905430792  1.0000
  C   C376      1.0  0.39091094505756807  0.8407721482033051  0.6780924836504175  1.0000
  C   C377      1.0  0.4503025288732886  0.7315143455245662  0.7052075187876757  1.0000
  C   C378      1.0  0.45970372866950593  0.7138280869402222  0.738713814411691  1.0000
  C   C379      1.0  0.4325269281096201  0.6743610123284599  0.754053402190866  1.0000
  C   C380      1.0  0.39664139409775506  0.6489684752342588  0.7353831575383105  1.0000
  C   C381      1.0  0.3901889875698916  0.661760072609868  0.6992663470675918  1.0000
  C   C382      1.0  0.4164517132918601  0.7030360783860055  0.6842812041921716  1.0000
  C   C383      1.0  0.5068718799043681  0.762117112550363  0.6238680394854844  1.0000
  C   C384      1.0  0.5389160178607404  0.753807781582232  0.6014508058503759  1.0000
  C   C385      1.0  0.5738934332282968  0.7440711359391893  0.6178537283408161  1.0000
  C   C386      1.0  0.5765631508168696  0.7422224919167345  0.6561281518367738  1.0000
  C   C387      1.0  0.5439899986018053  0.7497239113985178  0.6783147149789622  1.0000
  C   C388      1.0  0.5096129930555428  0.762992240472936  0.662660065063116  1.0000
  H   H273      1.0  0.6274114644945784  0.031518943991418746  0.78097996265708  1.0000
  H   H274      1.0  0.5187041242798479  0.9427433822001335  0.721762346236868  1.0000
  H   H275      1.0  0.5253312418945322  0.9986946933048354  0.6750853280780833  1.0000
  H   H276      1.0  0.6334387832838756  0.0896176542909104  0.732418197787852  1.0000
  H   H277      1.0  0.48579640398896834  0.9277859631680956  0.7905921708803408  1.0000
  H   H278      1.0  0.44548397435513803  0.9507535127646954  0.8384562981612258  1.0000
  H   H279      1.0  0.562550842000258  0.011382293766847296  0.8983574868958224  1.0000
  H   H280      1.0  0.605043563117157  0.9837976522688403  0.8520236614216258  1.0000
  H   H281      1.0  0.5989570553395495  0.9120205784011929  0.7115115745758898  1.0000
  H   H282      1.0  0.5587933645679641  0.8503029585053589  0.67484903147558  1.0000
  H   H283      1.0  0.4725246720842386  0.7978646059832474  0.7665264871372924  1.0000
  H   H284      1.0  0.512252197421973  0.8587372147917299  0.8046546317840813  1.0000
  H   H285      1.0  0.4662389306596122  0.9041809750062504  0.6171617168620562  1.0000
  H   H286      1.0  0.5019169980258946  0.8483478021473182  0.6349402231456409  1.0000
  H   H287      1.0  0.3995389617984298  0.786281842475145  0.7118772716988117  1.0000
  H   H288      1.0  0.36024345787457596  0.8393506624452941  0.6914769983493566  1.0000
  H   H289      1.0  0.4895784135766723  0.7314554574913681  0.7539099363964891  1.0000
  H   H290      1.0  0.4408135898563563  0.6638385342501014  0.7812640811910424  1.0000
  H   H291      1.0  0.3630852837660813  0.6405625149961649  0.6825483624404804  1.0000
  H   H292      1.0  0.40976141631852653  0.7136501275238138  0.6564910359049038  1.0000
  H   H293      1.0  0.4797626141262207  0.7702809490726112  0.6103400589921683  1.0000
  H   H294      1.0  0.5346785909370513  0.7530732821695167  0.5713651848530756  1.0000
  H   H295      1.0  0.6045026144365625  0.7344250791397685  0.6682524179890285  1.0000
  H   H296      1.0  0.5473773728484036  0.7455026890845433  0.7084031490310543  1.0000
  C   C389      1.0  0.2902929823995791  0.6175744254647951  0.7632914741268301  1.0000
  C   C390      1.0  0.30442862233246976  0.6648953038846837  0.7649989983853959  1.0000
  C   C391      1.0  0.27746456906166295  0.6884741510584442  0.7789151804399675  1.0000
  C   C392      1.0  0.23469001937419517  0.6656481723486589  0.7899986163192909  1.0000
  C   C393      1.0  0.22057367390304972  0.6179804678163313  0.7880801129513471  1.0000
  C   C394      1.0  0.2489025099876945  0.5941072719226294  0.7765747188532678  1.0000
  H   H297      1.0  0.3374244801006406  0.6844972679185941  0.7575500292969573  1.0000
  H   H298      1.0  0.2904747750968214  0.7243287407650087  0.7851995448446397  1.0000
  H   H299      1.0  0.18344212556990971  0.07823229458863046  0.826073230968134  1.0000
  H   H300      1.0  0.23608650789678073  0.5570778354969068  0.7763693658534733  1.0000
  C   C395      1.0  0.07994620501780045  0.0871689269022975  0.8129700217483655  1.0000
  C   C396      1.0  0.09635405003313623  0.10843307288797299  0.8465072609750894  1.0000
  C   C397      1.0  0.5889333445273123  0.13818050426288275  0.8943179402149319  1.0000
  C   C398      1.0  0.546416474448699  0.11206942216897153  0.9002225422227238  1.0000
  C   C399      1.0  0.5228026350839073  0.08578951189363737  0.8718782021414898  1.0000
  C   C400      1.0  0.03637455698856984  0.06401297686876295  0.8086941784649718  1.0000
  C   C401      1.0  0.14313422325660644  0.14855031470299163  0.8474411951659361  1.0000
  C   C402      1.0  0.7432574019560698  0.7654295933747061  0.8034647096071895  1.0000
  C   C403      1.0  0.7520009278381816  0.792340764413537  0.8352128459863882  1.0000
  C   C404      1.0  0.7628350620189945  0.8391367701601936  0.8345517781103372  1.0000
  C   C405      1.0  0.7666346675005047  0.862144094539175  0.8008907644727782  1.0000
  C   C406      1.0  0.7588507058663858  0.8364345567858108  0.768034284505647  1.0000
  C   C407      1.0  0.7451765649098246  0.7885545778420292  0.7696236604629613  1.0000
  C   C408      1.0  0.15978968698247756  0.11326760896800292  0.9115028919374665  1.0000
  C   C409      1.0  0.17345726108922116  0.12326173688343345  0.9476815896136028  1.0000
  C   C410      1.0  0.21992141813817961  0.6860243580054256  0.9302744065625234  1.0000
  C   C411      1.0  0.2488760781808852  0.7187627753947705  0.9084282230501315  1.0000
  C   C412      1.0  0.24500268430590133  0.7177552258507909  0.8700919123487562  1.0000
  C   C413      1.0  0.2118206262822223  0.6845223246131802  0.8525693940512169  1.0000
  C   C414      1.0  0.2112568522324567  0.6954625314638896  0.9736432722862616  1.0000
  C   C415      1.0  0.5835978216752623  0.17930142016894957  0.0461469464877029  1.0000
  C   C416      1.0  0.6115342193463699  0.1653745198280001  0.06977098062845344  1.0000
  C   C417      1.0  0.12924763534710945  0.15714027470161507  0.04276284157328014  1.0000
  C   C418      1.0  0.6691091763258552  0.18831561424691448  0.023490603195299276  1.0000
  C   C419      1.0  0.6407656920733988  0.20544322895927478  0.0022070306412484975  1.0000
  C   C420      1.0  0.5997810298947569  0.20235311870393766  0.014027486875998862  1.0000
  C   C421      1.0  0.7133726640958328  0.7222299758748242  0.9689567230032786  1.0000
  C   C422      1.0  0.711291032330515  0.7524880803175938  0.9401679202649549  1.0000
  C   C423      1.0  0.7046993816025144  0.7945233376890002  0.9474621713398498  1.0000
  C   C424      1.0  0.6992183042406428  0.8069356379142951  0.9839671833718241  1.0000
  C   C425      1.0  0.7005294154653584  0.7769653189131956  0.012162431549097574  1.0000
  C   C426      1.0  0.24176785941327836  0.7579931600501282  0.024371089345103458  1.0000
  C   C427      1.0  0.2833586106937432  0.683549461393728  0.9923444605415258  1.0000
  C   C428      1.0  0.31001526433478455  0.6622165140690784  0.00930155482593209  1.0000
  C   C429      1.0  0.2914199115899321  0.622201897375595  0.02950210128517594  1.0000
  C   C430      1.0  0.24635476500232018  0.6035516869103436  0.029752463161637932  1.0000
  C   C431      1.0  0.220160952571377  0.6237260569671372  0.009605364743436429  1.0000
  C   C432      1.0  0.23799106597881875  0.665896788500644  0.9927298490479897  1.0000
  H   H301      1.0  0.10087853503474996  0.08804022463478578  0.7889802904846931  1.0000
  H   H302      1.0  0.6059639633534412  0.15753154737255448  0.9182289059444366  1.0000
  H   H303      1.0  0.5324160301367096  0.10957004592562014  0.9280971021537427  1.0000
  H   H304      1.0  0.026259006669288487  0.04798368850525825  0.7817197960672989  1.0000
  H   H305      1.0  0.7478610876571186  0.7769928628163372  0.8625585516165665  1.0000
  H   H306      1.0  0.7694006156489961  0.8585950317390101  0.8602209030846584  1.0000
  H   H307      1.0  0.7619294861362041  0.8543368771250945  0.7414059078473539  1.0000
  H   H308      1.0  0.7367474240474475  0.7696654281977624  0.7436029036396767  1.0000
  H   H309      1.0  0.13396692181089181  0.08170739760235168  0.9063296841755183  1.0000
  H   H310      1.0  0.1579638711237398  0.0988587948691273  0.9694602598109939  1.0000
  H   H311      1.0  0.27258589923696225  0.7488853897323884  0.9200123826823785  1.0000
  H   H312      1.0  0.26617938389427076  0.7459916097363504  0.8541278264058222  1.0000
  H   H313      1.0  0.6003863245728088  0.14877402880311297  0.09613493013632612  1.0000
  H   H314      1.0  0.1469602286313649  0.144564283734542  0.06396764859316306  1.0000
  H   H315      1.0  0.6500770526128776  0.22225058903767886  0.9753564226544107  1.0000
  H   H316      1.0  0.579567288084371  0.21788124940327008  0.997382641673472  1.0000
  H   H317      1.0  0.7149065918179225  0.7440145506962295  0.9117588799235119  1.0000
  H   H318      1.0  0.7046540196687848  0.8177950966265312  0.9244373178697327  1.0000
  H   H319      1.0  0.6936537996958466  0.7844326195721807  0.04093716901346256  1.0000
  H   H320      1.0  0.24790133241380352  0.7320341476881475  0.04248434914890109  1.0000
  H   H321      1.0  0.29911932575847205  0.7151008659969712  0.9780400769256985  1.0000
  H   H322      1.0  0.34506806064773576  0.676561618130125  0.007098932924025858  1.0000
  H   H323      1.0  0.2307666312572179  0.5731704871686047  0.045933154323533065  1.0000
  H   H324      1.0  0.17850990305915768  0.09803487756454787  0.03178630177604158  1.0000
  C   C433      1.0  0.4071171926510725  0.9966952696149146  0.6512446887183714  1.0000
  C   C434      1.0  0.44770401681806576  0.02969857100630069  0.6532503967848581  1.0000
  C   C435      1.0  0.4553380451681333  0.07035604087892677  0.6332439511062419  1.0000
  C   C436      1.0  0.42410307816729936  0.07707679785700061  0.6085875258569351  1.0000
  C   C437      1.0  0.3834318779256229  0.043035725353027354  0.6071050459817059  1.0000
  C   C438      1.0  0.37461763824993655  0.004510038949645523  0.6295504101647313  1.0000
  H   H325      1.0  0.47247417168523376  0.023370556544216603  0.6711217338765689  1.0000
  H   H326      1.0  0.48727266047436935  0.09575105260556249  0.6350302408989755  1.0000
  H   H327      1.0  0.3577678467570255  0.04606219775568765  0.5886063976714443  1.0000
  H   H328      1.0  0.3430211091757311  0.9791812075540927  0.6275447020982446  1.0000
  C   C439      1.0  0.4980318578776635  0.09344038396689358  0.5439547789626883  1.0000
  C   C440      1.0  0.4542531999650467  0.09235972758690725  0.5458704692758404  1.0000
  C   C441      1.0  0.42476902060149774  0.06395569286071989  0.5205895458627746  1.0000
  C   C442      1.0  0.43941722064935546  0.04124912936859659  0.4928922083836332  1.0000
  C   C443      1.0  0.4830685503926394  0.04383587803263733  0.49132814991944446  1.0000
  C   C444      1.0  0.5120282690450654  0.07135863594320324  0.515728587182706  1.0000
  C   C445      1.0  0.43657381244277244  0.11773239787148437  0.5786172401060948  1.0000
  C   C446      1.0  0.47133769156856103  0.16599096357505982  0.5894081182870807  1.0000
  C   C447      1.0  0.492201668118299  0.19698491806552965  0.5610890956989721  1.0000
  C   C448      1.0  0.5228132108610679  0.23809126755655788  0.5695423253480499  1.0000
  C   C449      1.0  0.5326317350705679  0.2503636270228707  0.6063933431194041  1.0000
  C   C450      1.0  0.5117887274542484  0.22165423582222205  0.6349767928579332  1.0000
  C   C451      1.0  0.481521213996375  0.18003973557124509  0.6263744713048949  1.0000
  C   C452      1.0  0.3851215685858256  0.14743948740370438  0.5337349509044188  1.0000
  C   C453      1.0  0.3496382633304658  0.1632957718777841  0.5276165567324573  1.0000
  C   C454      1.0  0.3226951406423888  0.16864248918337932  0.5565685166486999  1.0000
  C   C455      1.0  0.3366472177434604  0.16342846227206498  0.5928344190233792  1.0000
  C   C456      1.0  0.3720621580572984  0.14805379005160746  0.599006261236383  1.0000
  C   C457      1.0  0.39521157715309013  0.1364976440055521  0.5693847942797143  1.0000
  C   C458      1.0  0.2800358077552083  0.18416778619479462  0.5481518567119142  1.0000
  C   C459      1.0  0.349258186689959  0.32816415707055063  0.5193996236858828  1.0000
  C   C460      1.0  0.32851576059767634  0.297221723823216  0.4921101791515388  1.0000
  C   C461      1.0  0.3080765314917985  0.25194454097088925  0.5008419012249956  1.0000
  C   C462      1.0  0.30387036404248874  0.2359604336187291  0.5372062605173846  1.0000
  C   C463      1.0  0.3244518783801164  0.2676287266365518  0.5649570460375685  1.0000
  C   C464      1.0  0.34493423547882013  0.31328179889501667  0.5562028195257781  1.0000
  C   C465      1.0  0.24386903337499494  0.1782353265156318  0.5818888228288495  1.0000
  C   C466      1.0  0.23062055604085765  0.13893331141560394  0.6039347332314527  1.0000
  C   C467      1.0  0.19519011767604505  0.12939893118241685  0.6272240138519902  1.0000
  C   C468      1.0  0.1690407280698942  0.15789592602024194  0.6277191114953304  1.0000
  C   C469      1.0  0.18341150742213239  0.2001119365489821  0.6090854365550672  1.0000
  C   C470      1.0  0.22036669595084624  0.20937239751563524  0.5864572238105806  1.0000
  C   C471      1.0  0.21401491290652244  0.1635670204195412  0.5020627670045962  1.0000
  C   C472      1.0  0.17975367099790351  0.1331707991252542  0.48524069935019176  1.0000
  C   C473      1.0  0.17666566467255607  0.08703312944182251  0.48562046174707213  1.0000
  C   C474      1.0  0.21010832846581023  0.07339164881823779  0.5016830046077158  1.0000
  C   C475      1.0  0.24624892686696548  0.1054718702129962  0.5162883850862555  1.0000
  C   C476      1.0  0.24787828810231918  0.15108710952810744  0.5185810247414963  1.0000
  H   H329      1.0  0.5219487034226699  0.1112675870197497  0.5648051410788163  1.0000
  H   H330      1.0  0.38997601491138256  0.058622712265230525  0.5230903515726016  1.0000
  H   H331      1.0  0.4154145217095149  0.018565805883827835  0.4749589840865047  1.0000
  H   H332      1.0  0.5461633316674467  0.0732551887069881  0.5156441955389548  1.0000
  H   H333      1.0  0.4856705416310976  0.187902549979051  0.5321202574539793  1.0000
  H   H334      1.0  0.538344973554397  0.25940758788313967  0.5463261841520968  1.0000
  H   H335      1.0  0.5187737060396842  0.2324011320093751  0.6637852869797985  1.0000
  H   H336      1.0  0.46395300900868425  0.1602500903640458  0.6495793602816812  1.0000
  H   H337      1.0  0.4048127814666224  0.14182679561548595  0.5107719846397193  1.0000
  H   H338      1.0  0.3424347986623709  0.1706472221926556  0.4988980803639264  1.0000
  H   H339      1.0  0.3208665050204282  0.17355843524484516  0.6171279602045557  1.0000
  H   H340      1.0  0.3832281697497712  0.14732734536870917  0.6276741026186632  1.0000
  H   H341      1.0  0.3315074610502475  0.305300918641418  0.46295005318071003  1.0000
  H   H342      1.0  0.29737549816526804  0.22896789628699596  0.4781743057134252  1.0000
  H   H343      1.0  0.32404727706859204  0.2564261840194387  0.5937008398992247  1.0000
  H   H344      1.0  0.3568478687952927  0.33783774022856733  0.5782965518598403  1.0000
  H   H345      1.0  0.24594764755247125  0.11249345063841565  0.5998670560026452  1.0000
  H   H346      1.0  0.18803081009873648  0.09793770027446502  0.6432415478359665  1.0000
  H   H347      1.0  0.5922390606826782  0.090707797628377  0.5620764779308611  1.0000
  H   H348      1.0  0.22852976195630362  0.23937987334597163  0.568841874704915  1.0000
  H   H349      1.0  0.21500080670297606  0.19924451148703448  0.5026985173875218  1.0000
  H   H350      1.0  0.15396228741147308  0.14596379322164776  0.4754175120175529  1.0000
  H   H351      1.0  0.20810053188446745  0.03726671391581404  0.49973918374664666  1.0000
  H   H352      1.0  0.2713696439494148  0.09319919716651404  0.5297404131001956  1.0000
  C   C477      1.0  0.41042332595410363  0.019006607190844127  0.1523678954225376  1.0000
  C   C478      1.0  0.4391245860307983  0.9997637448056003  0.1699691792542446  1.0000
  C   C479      1.0  0.4556333089017589  0.016379514966818887  0.20460979071860028  1.0000
  C   C480      1.0  0.4467539761660678  0.05342022128983581  0.2217050059932794  1.0000
  C   C481      1.0  0.42594117498814665  0.07754440014734243  0.198974679359854  1.0000
  C   C482      1.0  0.4065022415208597  0.059905808681477435  0.16548235686147272  1.0000
  H   H353      1.0  0.44531836280590614  0.9690580596303728  0.1587900995120033  1.0000
  H   H354      1.0  0.4720554367219967  0.9964487102055952  0.2202081795386124  1.0000
  H   H355      1.0  0.42082239920747627  0.10831349912010269  0.21070033564812388  1.0000
  H   H356      1.0  0.38576902663873186  0.07706836855926524  0.15215129020357598  1.0000
  C   C483      1.0  0.5010663706493617  0.1441265934808873  0.26087144916368715  1.0000
  C   C484      1.0  0.472258590639826  0.11181763803625544  0.2829173595662904  1.0000
  C   C485      1.0  0.4656432303984214  0.12550069277991982  0.3191860749957614  1.0000
  C   C486      1.0  0.48219117642150766  0.17006184073177355  0.3312850236548907  1.0000
  C   C487      1.0  0.5088024480158725  0.2024949965100248  0.30745001040476216  1.0000
  C   C488      1.0  0.5197690770536841  0.18824961093687503  0.27270456414500027  1.0000
  C   C489      1.0  0.44793927619195756  0.060178851776041764  0.2675561112652191  1.0000
  C   C490      1.0  0.47175783739345584  0.030656963520667713  0.2916518946945389  1.0000
  C   C491      1.0  0.4548348229444688  0.007978254825566466  0.3248487542914664  1.0000
  C   C492      1.0  0.4749275843621298  0.9795519678068577  0.34193806215108297  1.0000
  C   C493      1.0  0.5128972249297101  0.9740290546833938  0.32746770830254507  1.0000
  C   C494      1.0  0.5306357804514413  0.9972054524872441  0.29559017140292787  1.0000
  C   C495      1.0  0.5120655512719905  0.027604199916573924  0.27931524290551035  1.0000
  C   C496      1.0  0.37241381391706685  0.0748716576618138  0.2834265224835893  1.0000
  C   C497      1.0  0.3280450786155927  0.06142889253289274  0.279725104988662  1.0000
  C   C498      1.0  0.3041362493708023  0.017523646655793534  0.2689716404364058  1.0000
  C   C499      1.0  0.3276541563062287  0.9862265889459949  0.26335481393380555  1.0000
  C   C500      1.0  0.37187926447879893  0.9999173587893074  0.2660426877872811  1.0000
  C   C501      1.0  0.39594863473280306  0.04473761924523334  0.27405258000118593  1.0000
  C   C502      1.0  0.25126092759747126  0.004782344915364334  0.26734091257365356  1.0000
  C   C503      1.0  0.2620052021190781  0.04058472224216181  0.3833687331233352  1.0000
  C   C504      1.0  0.2342086301763354  0.05625317182058698  0.36160412819990256  1.0000
  C   C505      1.0  0.22495189466188148  0.04170115053411094  0.32581081903023  1.0000
  C   C506      1.0  0.23914116608196773  0.006267183240906915  0.3116920970306554  1.0000
  C   C507      1.0  0.25625292023340934  0.9813021435400298  0.3375975186074799  1.0000
  C   C508      1.0  0.27054081157170695  0.0011728891518592022  0.3719786742717159  1.0000
  C   C509      1.0  0.23007322982706782  0.9582184483240821  0.24566210582136802  1.0000
  C   C510      1.0  0.2424850359303614  0.952892086706567  0.20916834600856055  1.0000
  C   C511      1.0  0.2269405791079688  0.9112438182770998  0.19147779619163208  1.0000
  C   C512      1.0  0.19853635327965877  0.8747841386539029  0.21023955727324234  1.0000
  C   C513      1.0  0.1863421504586021  0.8802759280808015  0.24571470994597291  1.0000
  C   C514      1.0  0.20049824210187595  0.9216306675900835  0.263243416964054  1.0000
  C   C515      1.0  0.19122368191319689  0.039621856864576754  0.24118484781488805  1.0000
  C   C516      1.0  0.17729301257453575  0.07277901784932528  0.22345894565590838  1.0000
  C   C517      1.0  0.205470572597921  0.10629146069199735  0.20264993544521842  1.0000
  C   C518      1.0  0.24854494374603187  0.10634874141979922  0.20013028226828697  1.0000
  C   C519      1.0  0.26323373292360086  0.07419745411907486  0.21854172588000553  1.0000
  C   C520      1.0  0.23528845285956806  0.04130266943118266  0.2417564605485628  1.0000
  H   H357      1.0  0.5092840614243124  0.13596759497512867  0.23303936636002293  1.0000
  H   H358      1.0  0.4451218973738805  0.10076690067267502  0.3382360820451973  1.0000
  H   H359      1.0  0.47338441559973315  0.1781556332383165  0.3590667527777834  1.0000
  H   H360      1.0  0.5405050422462226  0.21258310747766607  0.2533833786136438  1.0000
  H   H361      1.0  0.423858429735946  0.008535320322330175  0.3373612220049766  1.0000
  H   H362      1.0  0.46125851087687797  0.961948366900751  0.36780410096082355  1.0000
  H   H363      1.0  0.5608132284824089  0.9939335217606451  0.28485836737256787  1.0000
  H   H364      1.0  0.5284708502204529  0.04720659949631045  0.25554689905394523  1.0000
  H   H365      1.0  0.3888751501943677  0.11066240380819714  0.2892833025599221  1.0000
  H   H366      1.0  0.31252157948684134  0.08680791934902121  0.28784301850656835  1.0000
  H   H367      1.0  0.312319062612901  0.9506786389284216  0.25602089878634776  1.0000
  H   H368      1.0  0.3883484719213516  0.9743836942023154  0.2597673251579424  1.0000
  H   H369      1.0  0.22617417919353722  0.08716066476994211  0.36931471138396993  1.0000
  H   H370      1.0  0.21371245916108528  0.06440839100443618  0.30853584955436086  1.0000
  H   H371      1.0  0.264205913805529  0.9504478805769183  0.32848884719193455  1.0000
  H   H372      1.0  0.2920050046905509  0.9873891908211914  0.3883506531594473  1.0000
  H   H373      1.0  0.26515096711704594  0.9817794376991128  0.1949632632268806  1.0000
  H   H374      1.0  0.2384485078223365  0.9061644455108322  0.16378045871249047  1.0000
  H   H375      1.0  0.16257565682448422  0.8518682271530912  0.2595636599910228  1.0000
  H   H376      1.0  0.18675519206754526  0.9251421967472826  0.2905351119422314  1.0000
  H   H377      1.0  0.16735625730516526  0.01276131448941209  0.25640234901610315  1.0000
  H   H378      1.0  0.6154706835048966  0.8875421987106795  0.2548737350422899  1.0000
  H   H379      1.0  0.27057318016608545  0.1314232479919939  0.18254353417317248  1.0000
  H   H380      1.0  0.2971685498689981  0.07557369535838898  0.2129201171842594  1.0000
  C   C521      1.0  0.5485490111642312  0.08538802382832666  0.4265660025047791  1.0000
  C   C522      1.0  0.5761022515819947  0.6262345033433618  0.43417812877113665  1.0000
  C   C523      1.0  0.6071985918133297  0.6679598290382258  0.4367633261247149  1.0000
  C   C524      1.0  0.6474316816540273  0.672716066549383  0.4548315770518453  1.0000
  C   C525      1.0  0.6199270163964272  0.13301598960160255  0.4442516779802374  1.0000
  C   C526      1.0  0.5885799438038326  0.09100148383165552  0.4435990492685615  1.0000
  H   H381      1.0  0.5477259604671972  0.6246509293353223  0.4171647733908962  1.0000
  H   H382      1.0  0.6009541959151072  0.6963674734521986  0.4210242845651174  1.0000
  H   H383      1.0  0.6521348047126924  0.13596246436497506  0.4545727760110083  1.0000
  H   H384      1.0  0.5955291778358489  0.06276763248533923  0.45790905899397205  1.0000
  C   C527      1.0  0.24551402472398604  0.38622886480228213  0.5183672325773265  1.0000
  C   C528      1.0  0.7290799192235479  0.735988593749198  0.4688012071474593  1.0000
  C   C529      1.0  0.2752407678725087  0.4244778793413224  0.4619936145515299  1.0000
  C   C530      1.0  0.3160820026055565  0.43760382204581716  0.47718692348153624  1.0000
  C   C531      1.0  0.32185325261804887  0.4214679145634841  0.5121306901041135  1.0000
  C   C532      1.0  0.2862592588654636  0.3994314415845671  0.5342581790956762  1.0000
  C   C533      1.0  0.6894217039912414  0.7139804853713656  0.4411488785449852  1.0000
  C   C534      1.0  0.1676556917628038  0.8947003587808757  0.44547254375983797  1.0000
  C   C535      1.0  0.1743955817677789  0.920016955159961  0.41275109042270886  1.0000
  C   C536      1.0  0.16449204095861653  0.9611629468830206  0.41184809983457105  1.0000
  C   C537      1.0  0.14679986049473143  0.9770009753887116  0.44222909158500046  1.0000
  C   C538      1.0  0.13481654791423495  0.9487116382425509  0.4728548191023083  1.0000
  C   C539      1.0  0.6548673745229174  0.7787765634531557  0.4563534396941584  1.0000
  C   C540      1.0  0.7358737542910568  0.6654927594268708  0.41376660320251485  1.0000
  C   C541      1.0  0.7446168629514448  0.6360425189254667  0.3884856797894492  1.0000
  C   C542      1.0  0.7176794722496397  0.6214689309583287  0.3577108603681809  1.0000
  C   C543      1.0  0.686326212748498  0.6433461411346222  0.3501409299236989  1.0000
  C   C544      1.0  0.680004000327406  0.6759903293109859  0.3743950883377917  1.0000
  C   C545      1.0  0.703537972361308  0.6868803642598554  0.4074034732636749  1.0000
  C   C546      1.0  0.723793618657646  0.579184857484664  0.3345031583366029  1.0000
  C   C547      1.0  0.3079061916639991  0.15149407570972628  0.39446623427661703  1.0000
  C   C548      1.0  0.784277923086824  0.06327644215912409  0.4151759436531598  1.0000
  C   C549      1.0  0.759617489105847  0.08384089951107487  0.3937432791951485  1.0000
  C   C550      1.0  0.7497973177176132  0.5496351913765454  0.35485560975459884  1.0000
  C   C551      1.0  0.27876898578180564  0.6865451329346056  0.32870545241089594  1.0000
  C   C552      1.0  0.3056939991983533  0.6618660345984946  0.3421406020960858  1.0000
  C   C553      1.0  0.7461681808804086  0.6077543183233582  0.2987351666600557  1.0000
  C   C554      1.0  0.7192129412918943  0.6124274418671655  0.26930358090182716  1.0000
  C   C555      1.0  0.7344682835756069  0.6414923247009429  0.24024697534733316  1.0000
  C   C556      1.0  0.7781320565890452  0.6660608518695261  0.2383692612738691  1.0000
  C   C557      1.0  0.8059261832871266  0.6617865693035329  0.26695017926308556  1.0000
  C   C558      1.0  0.7897650316249469  0.6346261845074842  0.297533992263997  1.0000
  C   C559      1.0  0.6742562243196671  0.5103124372064753  0.2949797385131276  1.0000
  C   C560      1.0  0.6369276399056851  0.47359446812440736  0.29143528947557745  1.0000
  C   C561      1.0  0.6195221684458034  0.9806954185493112  0.34169332638420447  1.0000
  C   C562      1.0  0.6124366116852862  0.48784157060697764  0.3516234097989282  1.0000
  C   C563      1.0  0.646679767620241  0.5275382091238532  0.35371632256395774  1.0000
  C   C564      1.0  0.6794472178677049  0.538738991352108  0.3264128127556552  1.0000
  H   H385      1.0  0.20425773784242918  0.8536860329508255  0.529028710237894  1.0000
  H   H386      1.0  0.7226670160332056  0.29589485900037843  0.4310809554454679  1.0000
  H   H387      1.0  0.3436201441623501  0.45251488683468316  0.45835352165106175  1.0000
  H   H388      1.0  0.29135627253513074  0.3894373006962988  0.5628781985464973  1.0000
  H   H389      1.0  0.19083953782073065  0.9110153970799851  0.388564445323617  1.0000
  H   H390      1.0  0.17255376428528055  0.9823837598859746  0.38687098633900974  1.0000
  H   H391      1.0  0.12057848218257802  0.9592197966002552  0.49725244331077817  1.0000
  H   H392      1.0  0.6436999434420605  0.7604702125370197  0.48241076622973506  1.0000
  H   H393      1.0  0.7417944473733725  0.21849643018442505  0.4252269884239268  1.0000
  H   H394      1.0  0.7729078196078825  0.17564084522999734  0.3873970275850588  1.0000
  H   H395      1.0  0.13832962519452827  0.7546533103888992  0.34828431376117264  1.0000
  H   H396      1.0  0.1343762525435568  0.8177319167268895  0.3873604578727666  1.0000
  H   H397      1.0  0.7752783669154438  0.055895560216984164  0.44442046126773976  1.0000
  H   H398      1.0  0.7331413773436803  0.0925840423759865  0.40753287378409336  1.0000
  H   H399      1.0  0.27931835933043686  0.6945687285484048  0.29874079276963905  1.0000
  H   H400      1.0  0.32895068870215405  0.6524271297488736  0.3237488498679092  1.0000
  H   H401      1.0  0.6844431187375701  0.5944763150951567  0.26847204190539875  1.0000
  H   H402      1.0  0.7119457432760538  0.6447220739954369  0.21787306275601692  1.0000
  H   H403      1.0  0.8406892434828629  0.6819398268215388  0.26694174009871047  1.0000
  H   H404      1.0  0.8120732522747867  0.63597999426342  0.3209920561720369  1.0000
  H   H405      1.0  0.6982635978236815  0.5174944376709303  0.27220496561399316  1.0000
  H   H406      1.0  0.6518470877006886  0.9568524684792387  0.2970388946206567  1.0000
  H   H407      1.0  0.5887534783378047  0.4789855683735466  0.37384654265340894  1.0000
  H   H408      1.0  0.6490752462537769  0.5473483943408527  0.37913789871660875  1.0000
  C   C565      1.0  0.7946065169833143  0.6961247845105372  0.2042646288956579  1.0000
  C   C566      1.0  0.17479019090782835  0.830762745203048  0.1902316129189061  1.0000
  H   H409      1.0  0.23195037772855662  0.8070672769787864  0.17525490920786102  1.0000
  H   H410      1.0  0.7984266150141491  0.6744075353398287  0.1804449952985594  1.0000
  H   H411      1.0  0.16725612437290685  0.8412510958249511  0.1619885428101735  1.0000
  H   H412      1.0  0.1422673938255577  0.8137160916685934  0.20240238662354826  1.0000
  C   C567      1.0  0.5319563109746194  0.9393751988516725  0.34700437383094623  1.0000
  C   C568      1.0  0.5792171457417276  0.9369825508747466  0.33865804026395324  1.0000
  H   H413      1.0  0.5222883851233014  0.4305077405548842  0.3570638577660884  1.0000
  H   H414      1.0  0.4957875314299993  0.39177593048099996  0.3231890519643596  1.0000
  H   H415      1.0  0.5796197670595469  0.9208603862896036  0.310718780072725  1.0000
  H   H416      1.0  0.5854181032534571  0.9105006360918817  0.3576686645463053  1.0000
  C   C569      1.0  0.285955318846983  0.06714500791754263  0.41793555040382374  1.0000
  C   C570      1.0  0.32293675677193645  0.11252954389549341  0.41073413013705534  1.0000
  H   H417      1.0  0.26196164157822655  0.07545680576729308  0.4368111480561739  1.0000
  H   H418      1.0  0.3002672804308928  0.04365379655807389  0.4340684196342601  1.0000
  H   H419      1.0  0.34063447359747107  0.1241388515394235  0.43802357467139935  1.0000
  H   H420      1.0  0.34756154542222006  0.10508000237367243  0.3913353042934478  1.0000
  C   C571      1.0  0.5146610581397819  0.036888736067540506  0.42715955706582914  1.0000
  C   C572      1.0  0.5002851270306179  0.015219478219242522  0.46576873408199987  1.0000
  H   H421      1.0  0.4835739713874408  0.03663820021591779  0.41267513794333277  1.0000
  H   H422      1.0  0.5580100924001477  0.5141771535326684  0.45793437648709745  1.0000
  H   H423      1.0  0.4755901355960005  0.9811308910394146  0.4621961544965326  1.0000
  H   H424      1.0  0.5297567233098305  0.008611014507252213  0.47839091093238656  1.0000
  C   C573      1.0  0.13461222235632017  0.053000153915595094  0.4714145350489546  1.0000
  C   C574      1.0  0.1382799035478936  0.023720947253221603  0.4368927266451334  1.0000
  H   H425      1.0  0.11291736345153439  0.0735783314734455  0.46238181611278534  1.0000
  H   H426      1.0  0.11743143224199891  0.030847163452549564  0.4953114355045008  1.0000
  H   H427      1.0  0.16409345437990966  0.045943543129243425  0.41849816136216506  1.0000
  H   H428      1.0  0.10702598579946425  0.017231357996274177  0.4223182897693024  1.0000
  C   C575      1.0  0.3671423844213613  0.4195716873570718  0.5226065061484282  1.0000
  C   C576      1.0  0.37609966215752183  0.37647434191913415  0.5063695538906986  1.0000
  H   H429      1.0  0.39169725156049096  0.45121369706867587  0.5118015626934838  1.0000
  H   H430      1.0  0.371179603997988  0.4189333437552742  0.5535613610763657  1.0000
  H   H431      1.0  0.37413942696371216  0.3793115590114898  0.4754765861681787  1.0000
  H   H432      1.0  0.41102647259076264  0.38057945643581964  0.51224039924099  1.0000
  C   C577      1.0  0.6127620980494636  0.7409436760025282  0.5928484842973376  1.0000
  C   C578      1.0  0.6137534349730809  0.6921569450636039  0.58441213297701  1.0000
  H   H433      1.0  0.6146250600102802  0.761648312420845  0.5669064930082209  1.0000
  H   H434      1.0  0.6432064383920341  0.7587915035985577  0.6079883451863016  1.0000
  H   H435      1.0  0.6168489483136225  0.6757237014171041  0.6121122835109433  1.0000
  H   H436      1.0  0.6432314038965532  0.6915286024731216  0.568765922225539  1.0000
  C   C579      1.0  0.5780178769915328  0.08886788326408479  0.6751162716807921  1.0000
  C   C580      1.0  0.12326137219801479  0.1419636194698397  0.6463105906137183  1.0000
  H   H437      1.0  0.5490794074685886  0.09970595066203414  0.6834457269190348  1.0000
  H   H438      1.0  0.6076468163558677  0.11835991558209225  0.6802500966756563  1.0000
  H   H439      1.0  0.545591880927581  0.05316270542009116  0.6236514342665229  1.0000
  H   H440      1.0  0.12630449311851497  0.14483612019437175  0.6771135405829036  1.0000
  C   C581      1.0  0.3994475444912411  0.9515466048558736  0.6712736388353211  1.0000
  C   C582      1.0  0.39010559776455334  0.9128936300584723  0.6422513525492859  1.0000
  H   H441      1.0  0.3710333931294005  0.9463185462764351  0.6904614855695506  1.0000
  H   H442      1.0  0.42714428871502963  0.951847044921257  0.6900451534603781  1.0000
  H   H443      1.0  0.4033687502732005  0.9268944478557171  0.6143599142895168  1.0000
  H   H444      1.0  0.35470763722517573  0.897493647947215  0.6382793191833965  1.0000
  C   C583      1.0  0.7828876037263709  0.9156746232491029  0.8003478448979788  1.0000
  C   C584      1.0  0.7545165936381094  0.9386536674781543  0.8259719609956326  1.0000
  H   H445      1.0  0.81727956220578  0.9263922440226303  0.8105817382302067  1.0000
  H   H446      1.0  0.7862173805076026  0.9303668330809293  0.7715984249267391  1.0000
  H   H447      1.0  0.7725854078814846  0.975194559885793  0.828995994896717  1.0000
  H   H448      1.0  0.7531011560460019  0.9261521883798421  0.8551320869664615  1.0000
  C   C585      1.0  0.3184890877982208  0.589510156943504  0.7468463558145142  1.0000
  C   C586      1.0  0.3674015050710745  0.607129464812065  0.7556990392440144  1.0000
  H   H449      1.0  0.3066678835140782  0.5534838640507882  0.7566582909279862  1.0000
  H   H450      1.0  0.31263589650588897  0.5864324761299556  0.7166341473515873  1.0000
  H   H451      1.0  0.3821954907101582  0.5785706462612444  0.7513584957004114  1.0000
  H   H452      1.0  0.36952705013684173  0.6135027801001599  0.7862685056654881  1.0000
  C   C587      1.0  0.47464251611005703  0.006472314962751469  0.8952237438578614  1.0000
  C   C588      1.0  0.4764256135516854  0.054539918818963695  0.8797997644349351  1.0000
  H   H453      1.0  0.4857624916476319  0.01034781927138595  0.9246482969791107  1.0000
  H   H454      1.0  0.44039852288587533  0.9836554918251919  0.8961492388843328  1.0000
  H   H455      1.0  0.45808764856819156  0.07109927580801245  0.89912826390875  1.0000
  H   H456      1.0  0.4569719660999941  0.04983427125316031  0.8534414410366459  1.0000
  C   C589      1.0  0.6372526587391669  0.017140375954855402  0.2083390574559655  1.0000
  C   C590      1.0  0.6212492801336436  0.9631356485866497  0.20963446918754633  1.0000
  H   H457      1.0  0.6731777343945182  0.03100387842791208  0.2137029903327913  1.0000
  H   H458      1.0  0.6226794672416643  0.03146994848416118  0.23139991802741644  1.0000
  H   H459      1.0  0.21616496714801123  0.15986827451579066  0.1621713913716345  1.0000
  H   H460      1.0  0.605375526572377  0.949414324862714  0.18256885166629777  1.0000
  C   C591      1.0  0.5087701876014227  0.7740711476415092  0.27461322182117304  1.0000
  C   C592      1.0  0.5439309813882841  0.748728514692261  0.27833461200512144  1.0000
  H   H461      1.0  0.5244359981132676  0.8109054546308244  0.28024945840183607  1.0000
  H   H462      1.0  0.48635591162840974  0.7645985180345656  0.29890957605714147  1.0000
  H   H463      1.0  0.5724655899946482  0.7640875563333869  0.2593388969131655  1.0000
  H   H464      1.0  0.5575947805385373  0.7532837546769655  0.30726997489809293  1.0000
  C   C593      1.0  0.3398044081833421  0.9530544918095694  0.13327006644164263  1.0000
  C   C594      1.0  0.3810005178054685  0.992518797474253  0.12060288071458847  1.0000
  H   H465      1.0  0.31479199520257667  0.9477058758121616  0.11151390068258515  1.0000
  H   H466      1.0  0.3250625712388751  0.9617841482654055  0.1593695887990949  1.0000
  H   H467      1.0  0.40052981691999734  0.9795588946494169  0.09945714784533144  1.0000
  H   H468      1.0  0.36813043039486787  0.017204794364460207  0.10525766682583004  1.0000
  C   C595      1.0  0.6900325810934954  0.8521504186710586  0.9932755816775806  1.0000
  C   C596      1.0  0.6403458273535719  0.8468625002866397  0.9928283059656993  1.0000
  H   H469      1.0  0.7052550610650011  0.8645054678895344  0.020857583910262045  1.0000
  H   H470      1.0  0.7083036967697621  0.8799217278462833  0.9736320200670946  1.0000
  H   H471      1.0  0.6226450069140411  0.8153304209672929  0.00845201227883674  1.0000
  H   H472      1.0  0.6292655515335994  0.8392940993699846  0.9634600139402842  1.0000
  C   C597      1.0  0.317831562593001  0.601066320369419  0.057559509777656004  1.0000
  C   C598      1.0  0.36769573767813835  0.6277560745171419  0.06294932275856535  1.0000
  H   H473      1.0  0.2998100056235512  0.593560159196932  0.08528216474992267  1.0000
  H   H474      1.0  0.31596973006353196  0.5657123973776426  0.04795855377356184  1.0000
  H   H475      1.0  0.38438209972019755  0.6273033810789974  0.035831474566515364  1.0000
  H   H476      1.0  0.38289431893204595  0.6072861603691891  0.08107383478152985  1.0000
  C   C599      1.0  0.5342403702447378  0.1687485186112616  0.05510089988970446  1.0000
  C   C600      1.0  0.5067601676830911  0.13224217009515749  0.02821934830015782  1.0000
  H   H477      1.0  0.5277985351284478  0.15788831417325278  0.08434541750428459  1.0000
  H   H478      1.0  0.5245467692187724  0.2004597636728452  0.05172242108486502  1.0000
  H   H479      1.0  0.5131779517922029  0.14552484173876912  0.9990648484389125  1.0000
  H   H480      1.0  0.4717047472045541  0.12893800329452088  0.03308312003501834  1.0000
  C   C601      1.0  0.16234875004844612  0.4035968673029839  0.057989907160787  1.0000
  C   C602      1.0  0.16400505318769534  0.4296559872252467  0.0893414028143551  1.0000
  C   C603      1.0  0.13596756442134011  0.45502084051210584  0.09376071189212576  1.0000
  C   C604      1.0  0.10742379897084393  0.4587085284791486  0.06560765953672787  1.0000
  C   C605      1.0  0.10801419671771133  0.43493112653867844  0.03234328662479946  1.0000
  C   C606      1.0  0.13415450918357175  0.4061944130620592  0.029614623476844182  1.0000
  H   H481      1.0  0.1859240763888333  0.42941182141234585  0.11216090328467754  1.0000
  H   H482      1.0  0.1343283389224823  0.4687518260450164  0.12152274963147658  1.0000
  H   H483      1.0  0.08516109376996242  0.43408671203338317  0.009821969962397814  1.0000
  H   H484      1.0  0.13111649466306635  0.3842882400191599  0.005183242610873773  1.0000
  C   C607      1.0  0.07509476310180728  0.5241671578493494  0.008851466059259128  1.0000
  C   C608      1.0  0.05189420092444341  0.5044281855124422  0.04089497319158686  1.0000
  C   C609      1.0  0.009645868027611249  0.5083742157275313  0.04507517261206284  1.0000
  C   C610      1.0  0.9922943798063971  0.5323766987420687  0.01983081891128946  1.0000
  C   C611      1.0  0.017865350917402045  0.5555467642139928  0.9906594407212937  1.0000
  C   C612      1.0  0.059149295215664  0.5502203456922454  0.9846732601245424  1.0000
  C   C613      1.0  0.07233891996251406  0.4840959648754394  0.07520861554082181  1.0000
  C   C614      1.0  0.09459749528431291  0.5296372836818224  0.09701541628613031  1.0000
  C   C615      1.0  0.07433569493486931  0.5456756921178625  0.1262289902980014  1.0000
  C   C616      1.0  0.09490339525331849  0.5861547088328031  0.14324515873303367  1.0000
  C   C617      1.0  0.136342247215323  0.6116843722132083  0.13157098134745193  1.0000
  C   C618      1.0  0.15536889382929148  0.5988601159466349  0.10050079117305444  1.0000
  C   C619      1.0  0.1345996373731434  0.5582636423408223  0.08360839714885726  1.0000
  C   C620      1.0  0.014226072410520318  0.4038745839883441  0.07447722129497825  1.0000
  C   C621      1.0  0.9854155124666635  0.36574306991236827  0.09069448216916576  1.0000
  C   C622      1.0  0.9784094649859838  0.3611818595222311  0.12916019339095963  1.0000
  C   C623      1.0  0.0032683460869731285  0.3977347488925516  0.15077851946522336  1.0000
  C   C624      1.0  0.033745731365191434  0.4349018599159593  0.13478067686478878  1.0000
  C   C625      1.0  0.038158257942976226  0.4403863180005033  0.09605616460215827  1.0000
  C   C626      1.0  0.9350742555388983  0.3244001379126233  0.14622137070265895  1.0000
  C   C627      1.0  0.8615766068409467  0.41746332450671775  0.11208495080530168  1.0000
  C   C628      1.0  0.8669823230978694  0.3847385934320176  0.08726255532328397  1.0000
  C   C629      1.0  0.8856503682431163  0.35187956914959934  0.09962311807804225  1.0000
  C   C630      1.0  0.9015398697446095  0.35242898241372606  0.13617032593189204  1.0000
  C   C631      1.0  0.8964791037391614  0.38625077183949125  0.16025288800369064  1.0000
  C   C632      1.0  0.8757851832663894  0.41753478034093144  0.14851963646748323  1.0000
  C   C633      1.0  0.9351454837953312  0.3106252335218335  0.18903043852284762  1.0000
  C   C634      1.0  0.9731995711589714  0.3075654216891224  0.20595611874191097  1.0000
  C   C635      1.0  0.9747437615832064  0.29571322478902357  0.24315426747456173  1.0000
  C   C636      1.0  0.9366313518719079  0.27953979481851443  0.2633314655790344  1.0000
  C   C637      1.0  0.8982081545286006  0.28347338614859374  0.24761042757010387  1.0000
  C   C638      1.0  0.8969022226074076  0.29686725478774484  0.2106319784166854  1.0000
  C   C639      1.0  0.8787562031726723  0.24737567648814757  0.12448770938193521  1.0000
  C   C640      1.0  0.8675920959685172  0.20376050697176298  0.10936191376692972  1.0000
  C   C641      1.0  0.9001418651122269  0.18469643907556293  0.09765960583343114  1.0000
  C   C642      1.0  0.9435962825773653  0.20982438337828938  0.1031647540608005  1.0000
  C   C643      1.0  0.9547231127528736  0.25425380027489036  0.11705280556745512  1.0000
  C   C644      1.0  0.9224481500640602  0.27400248000811545  0.12853569522720076  1.0000
  H   H485      1.0  0.10749514671286607  0.5225863043980795  0.002519279723127932  1.0000
  H   H486      1.0  0.9889997762778626  0.49148755544396616  0.06777371172634195  1.0000
  H   H487      1.0  0.959769131592129  0.5362817056773518  0.023935065852388915  1.0000
  H   H488      1.0  0.07985117066494643  0.5694318827784783  0.9624051183933943  1.0000
  H   H489      1.0  0.04109402551064667  0.5278019076910303  0.1354276794668814  1.0000
  H   H490      1.0  0.07873669281766421  0.5951632209646248  0.16741211244858345  1.0000
  H   H491      1.0  0.1869289916969032  0.6195172901344148  0.08960582996477551  1.0000
  H   H492      1.0  0.14970043892640567  0.5477870870925667  0.05903636354330177  1.0000
  H   H493      1.0  0.017656349733818244  0.40531893918014783  0.04427907810600984  1.0000
  H   H494      1.0  0.9666174356992616  0.33939527577199385  0.07180763229764886  1.0000
  H   H495      1.0  0.9990314499194075  0.39741132622828523  0.1812495289689875  1.0000
  H   H496      1.0  0.05258254334464643  0.46060033935027667  0.15450019095465106  1.0000
  H   H497      1.0  0.8566842530123143  0.38636734237479664  0.05841749148912623  1.0000
  H   H498      1.0  0.8905417795015805  0.3274809291361592  0.07933255386546345  1.0000
  H   H499      1.0  0.9095478327210273  0.3886303484359383  0.1884171925782554  1.0000
  H   H500      1.0  0.8732106647871829  0.44410531218885446  0.1678622012152564  1.0000
  H   H501      1.0  0.0034063007832629832  0.3160867426076363  0.19029631317911533  1.0000
  H   H502      1.0  0.005746540833541092  0.29595287993834657  0.25550582845398634  1.0000
  H   H503      1.0  0.8680433232144931  0.2768552516465609  0.26348196401039076  1.0000
  H   H504      1.0  0.8651783592076708  0.29649627009493534  0.20024421098735107  1.0000
  H   H505      1.0  0.8517768548136084  0.2595663720936075  0.13354293275643814  1.0000
  H   H506      1.0  0.8328818848443101  0.18713916990345456  0.10605094827709127  1.0000
  H   H507      1.0  0.9695217440518074  0.19571638188136928  0.09517567845235408  1.0000
  H   H508      1.0  0.989356020377898  0.2735998276966473  0.11957892877040743  1.0000
  C   C645      1.0  0.0470884763331878  0.35050868414737857  0.835052501863261  1.0000
  C   C646      1.0  0.009500632613095306  0.36271487327110286  0.828574036677961  1.0000
  C   C647      1.0  0.0067102566773178385  0.38727529661631893  0.7974954073391884  1.0000
  C   C648      1.0  0.041181989471757996  0.40080250464639394  0.7720991486796628  1.0000
  C   C649      1.0  0.07809457565997435  0.3865466239509141  0.7781837861941239  1.0000
  C   C650      1.0  0.08069415810642937  0.361761621382925  0.8095071512997749  1.0000
  H   H509      1.0  0.981830301991211  0.3529995997449098  0.8476352959465638  1.0000
  H   H510      1.0  0.9763068950211018  0.3949065347045254  0.7923137604128653  1.0000
  H   H511      1.0  0.10438134792870976  0.3928110441512711  0.7579101003102956  1.0000
  H   H512      1.0  0.11040780729985845  0.3520816088423219  0.8130881700496172  1.0000
  C   C651      1.0  0.1129088352935507  0.4844300277473974  0.7359204510035265  1.0000
  C   C652      1.0  0.07745221890924073  0.457953810124765  0.7152388721749008  1.0000
  C   C653      1.0  0.08034220395299255  0.4645462273415148  0.6765678079533125  1.0000
  C   C654      1.0  0.11637194794310873  0.4944041643684149  0.659478500093696  1.0000
  C   C655      1.0  0.1484161439942315  0.5223228921408853  0.6809646125927498  1.0000
  C   C656      1.0  0.14731606532842798  0.517211798962851  0.7192221577599571  1.0000
  C   C657      1.0  0.03431104120284778  0.42686491448224745  0.735838872414567  1.0000
  C   C658      1.0  0.014248490303724104  0.4659383229123747  0.7485032450868293  1.0000
  C   C659      1.0  0.9868863231705319  0.4798515996260895  0.7248398281789948  1.0000
  C   C660      1.0  0.97337218104589  0.517972037592064  0.7336053069099522  1.0000
  C   C661      1.0  0.9891719054470097  0.543364841252034  0.7655419179601951  1.0000
  C   C662      1.0  0.015410792151230535  0.5292524850717761  0.7900126815932493  1.0000
  C   C663      1.0  0.02729933432888698  0.4907303173587394  0.7819448404506354  1.0000
  C   C664      1.0  0.03483207095635499  0.35715150369586174  0.6976207100144435  1.0000
  C   C665      1.0  0.015359267242557983  0.3155125065821733  0.6831391039467388  1.0000
  C   C666      1.0  0.9708066858033252  0.29820848820542345  0.6787507384716768  1.0000
  C   C667      1.0  0.9462008006646463  0.32776372870996545  0.6863938083407432  1.0000
  C   C668      1.0  0.9654195278036506  0.3686844757138731  0.7050724921576738  1.0000
  C   C669      1.0  0.009987690901543278  0.3837641115151586  0.7110305422065081  1.0000
  C   C670      1.0  0.9500796783501091  0.247692195848538  0.6629441835970784  1.0000
  C   C671      1.0  0.9438782745328732  0.27839422924786145  0.5447818170714499  1.0000
  C   C672      1.0  0.9843813465592315  0.28628481739567024  0.5617445374654397  1.0000
  C   C673      1.0  0.9865695781479562  0.27594803814594315  0.5986180596751276  1.0000
  C   C674      1.0  0.9487491606527486  0.26260438037663386  0.6203601601602265  1.0000
  C   C675      1.0  0.9087132267451998  0.25846062713086637  0.603462140026446  1.0000
  C   C676      1.0  0.9060285907517563  0.26147065042599965  0.5655055917219513  1.0000
  C   C677      1.0  0.9036665112446731  0.217530176722188  0.679898464826693  1.0000
  C   C678      1.0  0.8894380657757934  0.2248099859206924  0.7156101954074061  1.0000
  C   C679      1.0  0.8557236748747135  0.19310058176490222  0.7333549450334903  1.0000
  C   C680      1.0  0.8334623062810005  0.15266250218227628  0.7160462189001205  1.0000
  C   C681      1.0  0.8479690216187806  0.14368792675863817  0.6815300366058827  1.0000
  C   C682      1.0  0.8816766358332608  0.175335429026523  0.6634871031718776  1.0000
  C   C683      1.0  0.9877462576555921  0.18434423599662875  0.6485047733512493  1.0000
  C   C684      1.0  0.0003223216164323084  0.14698293316893185  0.6601451940793305  1.0000
  C   C685      1.0  0.0050044108755225025  0.1403813091391679  0.698506822273831  1.0000
  C   C686      1.0  0.0028491428183337053  0.17359404772629472  0.7235176924268928  1.0000
  C   C687      1.0  0.9875815329515429  0.20855954119507283  0.7120404288767307  1.0000
  C   C688      1.0  0.9788044300912475  0.21437088763238307  0.674092319736611  1.0000
  H   H513      1.0  0.11289700378874032  0.47963396879171877  0.7660398286583272  1.0000
  H   H514      1.0  0.05430076384434823  0.44365807931553153  0.6589862155051474  1.0000
  H   H515      1.0  0.1167407484235324  0.4972913372370066  0.6290468733570159  1.0000
  H   H516      1.0  0.17362155925530667  0.5375773825745206  0.7366546583041619  1.0000
  H   H517      1.0  0.9767205020378218  0.46386398477429397  0.6977613627540289  1.0000
  H   H518      1.0  0.9516084626009351  0.529089590458421  0.7150532105586482  1.0000
  H   H519      1.0  0.02740520581773298  0.5487158746559571  0.8152148394721472  1.0000
  H   H520      1.0  0.04859182564551934  0.4808295981531112  0.80185001615675  1.0000
  H   H521      1.0  0.07001363196485177  0.366205716464833  0.7015111647913734  1.0000
  H   H522      1.0  0.03636813443714848  0.2951318993164544  0.6749165447905809  1.0000
  H   H523      1.0  0.911158457854669  0.31674358438552724  0.6805482804835772  1.0000
  H   H524      1.0  0.9446421194123273  0.3890770670000098  0.7140742674911343  1.0000
  H   H525      1.0  0.014569460550072577  0.29734511438775996  0.5458957867689657  1.0000
  H   H526      1.0  0.018424741702618652  0.27736037945897696  0.6095861603079908  1.0000
  H   H527      1.0  0.8783994699410169  0.24990178995450188  0.6185879356414514  1.0000
  H   H528      1.0  0.8744278011895972  0.25383882930617374  0.5523629997350987  1.0000
  H   H529      1.0  0.9077150471226199  0.2538954250844051  0.7323169278153506  1.0000
  H   H530      1.0  0.8478070161556938  0.20065636503441933  0.7616430240188901  1.0000
  H   H531      1.0  0.8328536002507069  0.11190337683501084  0.6670062347163024  1.0000
  H   H532      1.0  0.8934169217163633  0.1636961587111576  0.63782360430714  1.0000
  H   H533      1.0  0.9789069931234344  0.18672637143719673  0.619741288106051  1.0000
  H   H534      1.0  0.0020439682850605934  0.12103177655874497  0.639874321250294  1.0000
  H   H535      1.0  0.008090012948440473  0.17019059667433045  0.7530125719179347  1.0000
  H   H536      1.0  0.9820400797607807  0.23278744512633492  0.7322466014455579  1.0000
  C   C689      1.0  0.7292053108932798  0.1301236463527944  0.7629285900586998  1.0000
  C   C690      1.0  0.7313162086602225  0.17515507785791407  0.7677361006977261  1.0000
  C   C691      1.0  0.7105910921017032  0.18756564585050098  0.7975854250925231  1.0000
  C   C692      1.0  0.6849352394534132  0.1546248204057965  0.8216257913424462  1.0000
  C   C693      1.0  0.683670981912386  0.10858021604632473  0.817200856155092  1.0000
  C   C694      1.0  0.7067328908669097  0.09662569028071188  0.7883023442798919  1.0000
  H   H537      1.0  0.7518315403994669  0.20140604076932803  0.7494118617845505  1.0000
  H   H538      1.0  0.7146416432402576  0.22360928185152149  0.8009807822261128  1.0000
  H   H539      1.0  0.6997880835482366  0.6233190242147262  0.7811768764924995  1.0000
  H   H540      1.0  0.7042140651182401  0.06059073679909144  0.7843134325852521  1.0000
  C   C695      1.0  0.6476041349857423  0.6841079536566641  0.7795846874803937  1.0000
  C   C696      1.0  0.6748185908750748  0.704209758522912  0.8090683147522687  1.0000
  C   C697      1.0  0.11782876441013107  0.6710279475932484  0.8212319636716073  1.0000
  C   C698      1.0  0.0748732605726364  0.6551769723563057  0.8096815606968607  1.0000
  C   C699      1.0  0.06516077030063132  0.6409177222786356  0.7728671126377987  1.0000
  C   C700      1.0  0.6036435385580101  0.6795357125766212  0.7810840456843732  1.0000
  C   C701      1.0  0.7272696044961419  0.7105376452833364  0.8074311168634956  1.0000
  C   C702      1.0  0.12578823269093733  0.19353886331562437  0.8474580734946864  1.0000
  C   C703      1.0  0.1245104183632004  0.21636419439038806  0.8806718114203641  1.0000
  C   C704      1.0  0.09943336683720817  0.24539945154634626  0.8851642599227193  1.0000
  C   C705      1.0  0.07227117736063803  0.2508181108127951  0.8566539496087746  1.0000
  C   C706      1.0  0.07581651954852037  0.23105650032425715  0.8222615417253718  1.0000
  C   C707      1.0  0.1030724270411676  0.20435083028507778  0.8171811647715501  1.0000
  C   C708      1.0  0.7080543131156912  0.645537580433891  0.8582348864017136  1.0000
  C   C709      1.0  0.7072579141437286  0.6328257030068658  0.8951477913784853  1.0000
  C   C710      1.0  0.7143242736838492  0.18285466410446125  0.9642307909532118  1.0000
  C   C711      1.0  0.7374315676203927  0.21146941740555134  0.9362183913373991  1.0000
  C   C712      1.0  0.7261893764118347  0.20232346886369437  0.8993167385797943  1.0000
  C   C713      1.0  0.6902015629650532  0.16555530008283847  0.8901264885752894  1.0000
  C   C714      1.0  0.7175008545182001  0.19518638942558314  0.007799383567161033  1.0000
  C   C715      1.0  0.06968400611079757  0.661042190082117  0.9923669649798594  1.0000
  C   C716      1.0  0.09626861872904761  0.6561394991992099  0.02151865178631307  1.0000
  C   C717      1.0  0.6468926182602481  0.6232132956262069  7.192205434325416e-05  1.0000
  C   C718      1.0  0.16053479848876537  0.6847449881538095  0.982445320729511  1.0000
  C   C719      1.0  0.13347974143072106  0.692258763769919  0.9545201258122412  1.0000
  C   C720      1.0  0.08881675575717701  0.6789703165000512  0.9585934291506321  1.0000
  C   C721      1.0  0.21969103314715624  0.23773880154475935  0.008069436827164767  1.0000
  C   C722      1.0  0.2196309126041443  0.2718926364323671  0.9822371546749246  1.0000
  C   C723      1.0  0.22578693073412656  0.3160024647689897  0.9937087921155034  1.0000
  C   C724      1.0  0.2331933890876274  0.3279475952978421  0.03102115087269741  1.0000
  C   C725      1.0  0.23636496814274516  0.2954298589965514  0.056465231463681986  1.0000
  C   C726      1.0  0.7572862534455452  0.2538477600929444  0.05605452546409295  1.0000
  C   C727      1.0  0.7906293338221319  0.1774742225171102  0.007970979909454945  1.0000
  C   C728      1.0  0.8197327107356183  0.15750764439992682  0.02299269249716751  1.0000
  C   C729      1.0  0.8073612970176596  0.12463597894556955  0.05028776314109473  1.0000
  C   C730      1.0  0.7639905295231714  0.10814490200729554  0.059697431419352576  1.0000
  C   C731      1.0  0.7336779254693502  0.12640847242693365  0.04453225303726338  1.0000
  C   C732      1.0  0.747220075685313  0.1638788025029425  0.019856136404414526  1.0000
  H   H541      1.0  0.6613609479203681  0.6713943843113687  0.7550295322035883  1.0000
  H   H542      1.0  0.12497411208896697  0.6828984889941592  0.8495622384788828  1.0000
  H   H543      1.0  0.048996985767508106  0.6574761119101129  0.8286724935956709  1.0000
  H   H544      1.0  0.583177542300096  0.6623525365498493  0.7581970318990496  1.0000
  H   H545      1.0  0.13903690932733573  0.20802288638388425  0.9056995599021762  1.0000
  H   H546      1.0  0.09662909800238152  0.25932434532281806  0.9127884579772765  1.0000
  H   H547      1.0  0.055340912152047984  0.23338324740773067  0.7988287953104574  1.0000
  H   H548      1.0  0.10255301909763237  0.18828924293710175  0.7901927170999186  1.0000
  H   H549      1.0  0.6815100883577402  0.62662578913001  0.8403888668031281  1.0000
  H   H550      1.0  0.678660305961947  0.605122544736759  0.9035447599317291  1.0000
  H   H551      1.0  0.7634330078087805  0.2423381096618915  0.9426659129199902  1.0000
  H   H552      1.0  0.7411047326862951  0.22868419611448104  0.8786042161484598  1.0000
  H   H553      1.0  0.0835986338793444  0.641395764272248  0.04833550311565049  1.0000
  H   H554      1.0  0.6694992007208053  0.6182807912978007  0.02127954212901817  1.0000
  H   H555      1.0  0.14719757796558894  0.7060881862296496  0.9273938384558161  1.0000
  H   H556      1.0  0.06774097670730564  0.6842118443409849  0.9366290973369883  1.0000
  H   H557      1.0  0.20869699452490237  0.26513368857208397  0.9536255743884785  1.0000
  H   H558      1.0  0.21951285599654877  0.34071788260063784  0.9741243046556434  1.0000
  H   H559      1.0  0.24324073682856523  0.3053330777705249  0.08541719137992465  1.0000
  H   H560      1.0  0.7584248013688274  0.22430144348637657  0.0727162489953701  1.0000
  H   H561      1.0  0.8021629558003002  0.20510555675666753  0.9874553713135401  1.0000
  H   H562      1.0  0.8538072116030527  0.16938566017582146  0.014950168847678524  1.0000
  H   H563      1.0  0.7535426651992027  0.0787664612495873  0.07837892829107518  1.0000
  H   H564      1.0  0.7190893068529628  0.5839749339814626  0.9825775343047212  1.0000
  C   C733      1.0  0.9082199619758039  0.35386700195856585  0.5036071340852429  1.0000
  C   C734      1.0  0.8937671301008224  0.3609906143798024  0.5389250369951172  1.0000
  C   C735      1.0  0.8978836861699491  0.4038908751802533  0.5506526624217413  1.0000
  C   C736      1.0  0.915141295520231  0.441622233085028  0.5280272627320465  1.0000
  C   C737      1.0  0.927757500588996  0.43355250188964173  0.4926305942880045  1.0000
  C   C738      1.0  0.9258924067356157  0.3908569741437741  0.4804360017659572  1.0000
  H   H565      1.0  0.8777578739328872  0.3339697100084314  0.5583323020030998  1.0000
  H   H566      1.0  0.8859535492966374  0.40707039595459904  0.57839500877755  1.0000
  H   H567      1.0  0.9397113990590371  0.46111473504592254  0.47275073607501517  1.0000
  H   H568      1.0  0.9368933172212351  0.3868338498061086  0.45186380424659495  1.0000
  C   C739      1.0  0.988427594701579  0.5358304260022156  0.5066508593698693  1.0000
  C   C740      1.0  0.9460969973128164  0.5334060214329435  0.5166259516612604  1.0000
  C   C741      1.0  0.9312120242098125  0.5714198738943614  0.5082121047792664  1.0000
  C   C742      1.0  0.958428912521046  0.6093102801596212  0.48919304133253927  1.0000
  C   C743      1.0  0.001512120487723534  0.6107766003545244  0.48149933647722215  1.0000
  C   C744      1.0  0.015735714730752637  0.5738425758618498  0.49013260163296923  1.0000
  C   C745      1.0  0.9185495131585402  0.4907009670176479  0.5413723946639017  1.0000
  C   C746      1.0  0.9438437026856439  0.5005343334892489  0.5801362896936163  1.0000
  C   C747      1.0  0.9392797678996654  0.5348733283776188  0.6039459854506195  1.0000
  C   C748      1.0  0.9690565079885561  0.5521910432147568  0.6315082962997591  1.0000
  C   C749      1.0  0.006402726456961716  0.5383410124765912  0.6338487578864588  1.0000
  C   C750      1.0  0.009717453406291154  0.5024551681487087  0.6123964020449056  1.0000
  C   C751      1.0  0.9772315573014912  0.4815744809637166  0.5879847125624773  1.0000
  C   C752      1.0  0.846208402884819  0.4840448399275072  0.5081136478615567  1.0000
  C   C753      1.0  0.805604644292258  0.48968025027763246  0.5066818029725781  1.0000
  C   C754      1.0  0.7849411626904008  0.4986453398732896  0.539060063625119  1.0000
  C   C755      1.0  0.8051391300447598  0.49697936864791675  0.5734468453989384  1.0000
  C   C756      1.0  0.8442080160967929  0.48694997789899297  0.5746648981237473  1.0000
  C   C757      1.0  0.8678136467374388  0.4859051044736849  0.5418984359099509  1.0000
  C   C758      1.0  0.7450274067805429  0.5191904986054235  0.5353580835192334  1.0000
  C   C759      1.0  0.8293147167359519  0.662146456174556  0.5236782800240684  1.0000
  C   C760      1.0  0.8113168468933303  0.6378878733935329  0.49214674886383103  1.0000
  C   C761      1.0  0.7829473344607843  0.5937734424651563  0.49548021879200316  1.0000
  C   C762      1.0  0.7729699817159108  0.5721427323813878  0.5300864188395756  1.0000
  C   C763      1.0  0.790440515260345  0.5989002870981943  0.5614885494793944  1.0000
  C   C764      1.0  0.8167552480596227  0.6432355713065205  0.5579891093185116  1.0000
  C   C765      1.0  0.710062532453526  0.5176629331669397  0.5676322611444813  1.0000
  C   C766      1.0  0.7026227751072702  0.4864700984050881  0.5970005531698963  1.0000
  C   C767      1.0  0.6771052423466816  0.49033597661514994  0.6271846310849063  1.0000
  C   C768      1.0  0.6576976032423805  0.5253048761857263  0.6280932477826274  1.0000
  C   C769      1.0  0.6613957739437868  0.5539472721451544  0.5978585348813668  1.0000
  C   C770      1.0  0.6878194493435874  0.5506595575538092  0.5686280825407453  1.0000
  C   C771      1.0  0.6879292121490479  0.513726829552151  0.48256829729807055  1.0000
  C   C772      1.0  0.6530656429203502  0.48838410402832  0.4615407127300651  1.0000
  C   C773      1.0  0.6419359086808198  0.44141856493174236  0.4614985169081895  1.0000
  C   C774      1.0  0.6681067292985391  0.42012227957042875  0.48069198975200245  1.0000
  C   C775      1.0  0.7002762831843454  0.4457495745544181  0.503922196221914  1.0000
  C   C776      1.0  0.7111499322680841  0.4928248212891446  0.5050333528646381  1.0000
  H   H569      1.0  0.001701164463687288  0.5078520473231933  0.5131152592812107  1.0000
  H   H570      1.0  0.8987563070144697  0.5729150814600603  0.516341833127298  1.0000
  H   H571      1.0  0.9478999475425081  0.6392391750672002  0.4839016852693395  1.0000
  H   H572      1.0  0.049146781708053755  0.5739536335586428  0.4841576732553847  1.0000
  H   H573      1.0  0.9145752357157713  0.5517307083472226  0.5998361123999364  1.0000
  H   H574      1.0  0.9661523929114911  0.5824230244532077  0.6461614987097578  1.0000
  H   H575      1.0  0.03845608542738188  0.4914471946576858  0.6129955827155391  1.0000
  H   H576      1.0  0.9832053166656144  0.45417108574327614  0.5715086506474526  1.0000
  H   H577      1.0  0.8634928650459532  0.4827867999895157  0.481960677463062  1.0000
  H   H578      1.0  0.7933304754715138  0.4936205747810508  0.47909136157552146  1.0000
  H   H579      1.0  0.7919518325140333  0.5055987864214376  0.5995773113590994  1.0000
  H   H580      1.0  0.857844913936914  0.4855011734457112  0.602283470068721  1.0000
  H   H581      1.0  0.8190499617032041  0.651765905827817  0.4639486876317658  1.0000
  H   H582      1.0  0.769653376946954  0.5755784631993153  0.46973795439309757  1.0000
  H   H583      1.0  0.7830880358205771  0.5857594701369653  0.589481257711665  1.0000
  H   H584      1.0  0.8289585185934907  0.6642952960215245  0.5823782943626064  1.0000
  H   H585      1.0  0.7176967983760335  0.4596529834574831  0.5973353066901094  1.0000
  H   H586      1.0  0.6712578805663174  0.4657950887390072  0.6499956923908538  1.0000
  H   H587      1.0  0.19174823503953592  0.680675956015924  0.6387969212650705  1.0000
  H   H588      1.0  0.6923744125716723  0.5759057705863552  0.5468184687406454  1.0000
  H   H589      1.0  0.6957044193566899  0.5506245860272313  0.48302401217432706  1.0000
  H   H590      1.0  0.6328373929106068  0.504491998450132  0.44578760589650906  1.0000
  H   H591      1.0  0.6591210666556084  0.3829888317017287  0.48260486701036276  1.0000
  H   H592      1.0  0.7189981375559823  0.42869152045955505  0.519762507754013  1.0000
  C   C777      1.0  0.9133187531270354  0.529337322133069  0.12384914594421792  1.0000
  C   C778      1.0  0.9463005315206902  0.5173057412759383  0.14201304073426613  1.0000
  C   C779      1.0  0.9514945702669555  0.5242753431077218  0.17995271071001073  1.0000
  C   C780      1.0  0.9256887582920119  0.5460208024360268  0.19977302430974025  1.0000
  C   C781      1.0  0.8982380842208766  0.5648774002672553  0.17910035510812383  1.0000
  C   C782      1.0  0.892262337824311  0.5563773489994005  0.14183581828238867  1.0000
  H   H593      1.0  0.962096781245196  0.49410828454563194  0.1292192675415853  1.0000
  H   H594      1.0  0.9707260355779486  0.5058407612429419  0.19431091582068388  1.0000
  H   H595      1.0  0.8777471845048381  0.5835516456612186  0.19169252442056356  1.0000
  H   H596      1.0  0.8671201360197588  0.5670025478951168  0.1271572983792646  1.0000
  C   C783      1.0  0.9469371028786244  0.6306174964028606  0.2468601858571558  1.0000
  C   C784      1.0  0.92045017220314  0.5894273921595519  0.2618827423613056  1.0000
  C   C785      1.0  0.9018656065778087  0.5907771130078313  0.2969545029769055  1.0000
  C   C786      1.0  0.9043946458407944  0.6315139145842587  0.3140606891652723  1.0000
  C   C787      1.0  0.9295226494266688  0.6720414688303753  0.29858044864651184  1.0000
  C   C788      1.0  0.9519960734950376  0.6708252932211725  0.26560047557402483  1.0000
  C   C789      1.0  0.9190032353383036  0.5414365420236986  0.24366793127952732  1.0000
  C   C790      1.0  0.9592456845399039  0.5329354148716977  0.2648263228953472  1.0000
  C   C791      1.0  0.9512704788562927  0.5038571173225252  0.2956914413754293  1.0000
  C   C792      1.0  0.9846531415403013  0.49199613190364894  0.3123587910162899  1.0000
  C   C793      1.0  0.027192671804653346  0.5130168850721355  0.3008477708086272  1.0000
  C   C794      1.0  0.0361903048142147  0.5462064557360831  0.273195442206153  1.0000
  C   C795      1.0  0.002527581719387717  0.5553157846141784  0.2551553218269397  1.0000
  C   C796      1.0  0.8341062303034784  0.5107685493357247  0.2506386810533759  1.0000
  C   C797      1.0  0.7948046487104471  0.47837093491320376  0.245777441067828  1.0000
  C   C798      1.0  0.7930790029055723  0.43338476411824145  0.23606114981727397  1.0000
  C   C799      1.0  0.8321266614326284  0.4221098355282619  0.236250749710235  1.0000
  C   C800      1.0  0.8714872081705991  0.4548487335350193  0.24190470853608576  1.0000
  C   C801      1.0  0.8732106959316968  0.5008525838513324  0.24617914529208368  1.0000
  C   C802      1.0  0.7462695657302794  0.3945124429341996  0.22870360500956582  1.0000
  C   C803      1.0  0.7400068200598084  0.38512684410096504  0.35182313668913934  1.0000
  C   C804      1.0  0.7171830895225461  0.40981169368857645  0.33298410874908135  1.0000
  C   C805      1.0  0.7158380336185904  0.4105010613795423  0.29457184556833016  1.0000
  C   C806      1.0  0.735196715006589  0.3843003395627342  0.2728879753174195  1.0000
  C   C807      1.0  0.7541156878241824  0.3553256188069664  0.29317938344643546  1.0000
  C   C808      1.0  0.757464133692239  0.35641118417153  0.3318307562844817  1.0000
  C   C809      1.0  0.7437945068622726  0.3468298323501949  0.20804340539735716  1.0000
  C   C810      1.0  0.7754094167513681  0.3415471757953648  0.1828304657619264  1.0000
  C   C811      1.0  0.7772267897665766  0.2981141005573162  0.17369647685325562  1.0000
  C   C812      1.0  0.7434825729346426  0.2596493040907427  0.18290360518651072  1.0000
  C   C813      1.0  0.7093628373402232  0.26539277512044024  0.20382804279198508  1.0000
  C   C814      1.0  0.7091147542423194  0.30794157780167764  0.21596018549765653  1.0000
  C   C815      1.0  0.6872715669752464  0.4362479584165432  0.20845720575721718  1.0000
  C   C816      1.0  0.6802349426440013  0.4735274380133026  0.18993295864835116  1.0000
  C   C817      1.0  0.710833946600117  0.49853608073670846  0.16485504564292253  1.0000
  C   C818      1.0  0.7411662200736677  0.4786296208802571  0.15179684529982107  1.0000
  C   C819      1.0  0.746345559704653  0.4396313551138891  0.16787626648921505  1.0000
  C   C820      1.0  0.7225046361561156  0.42057328833807833  0.1995465733990079  1.0000
  H   H597      1.0  0.9637098312887763  0.6317084455666028  0.2201786424632995  1.0000
  H   H598      1.0  0.8825772149077884  0.5590228170178507  0.3102630651964686  1.0000
  H   H599      1.0  0.8870433192403465  0.6309474896744254  0.34034868619376885  1.0000
  H   H600      1.0  0.9743115499880272  0.7002943224498897  0.25232876437223306  1.0000
  H   H601      1.0  0.9183012842870556  0.48746926132473417  0.30606036133765924  1.0000
  H   H602      1.0  0.9784071000793287  0.4679976444501362  0.33554398860953427  1.0000
  H   H603      1.0  0.0694608705179502  0.5638394678809034  0.2649135275938901  1.0000
  H   H604      1.0  0.011393366436609043  0.5797809500703991  0.23234707357578402  1.0000
  H   H605      1.0  0.8343215078668863  0.5457341075767912  0.2562839194093723  1.0000
  H   H606      1.0  0.7656661378415616  0.48938360924901314  0.24959391250373608  1.0000
  H   H607      1.0  0.8325526944541151  0.3873011003825081  0.23101649865930687  1.0000
  H   H608      1.0  0.9015013345387343  0.4451007743715634  0.23857123860791363  1.0000
  H   H609      1.0  0.7055721759863274  0.43473233409895207  0.34795799940533473  1.0000
  H   H610      1.0  0.7048270165700407  0.4373517933808703  0.2820706300739868  1.0000
  H   H611      1.0  0.7708213905637867  0.33483819612205845  0.27822743461755745  1.0000
  H   H612      1.0  0.7749638324030386  0.3353283749701088  0.3454684459146745  1.0000
  H   H613      1.0  0.8012917301784138  0.3699536483300333  0.17218024032052592  1.0000
  H   H614      1.0  0.8029053140065041  0.29410968378699104  0.15547632096737307  1.0000
  H   H615      1.0  0.6820878370426812  0.23534896040699335  0.21025587299103426  1.0000
  H   H616      1.0  0.6830293347003378  0.3093832039737148  0.23511399426890645  1.0000
  H   H617      1.0  0.6675540561765636  0.42180631466755103  0.23262528469468374  1.0000
  H   H618      1.0  0.1320230563152234  0.5463330840868356  0.21907733151234646  1.0000
  H   H619      1.0  0.7662707210170483  0.4967225817664929  0.13241489778496374  1.0000
  H   H620      1.0  0.774421901750728  0.4287724458801485  0.1596002592920147  1.0000
  C   C821      1.0  0.08781497222339318  0.7312039986246633  0.4909821441800646  1.0000
  C   C822      1.0  0.09383727042444036  0.2796743732855886  0.5012582333341681  1.0000
  C   C823      1.0  0.12102507926466251  0.3158126148398865  0.4816990633674333  1.0000
  C   C824      1.0  0.1662475068147525  0.3232594569723259  0.479834008040532  1.0000
  C   C825      1.0  0.16275671510770545  0.7771457032243291  0.48864168259336477  1.0000
  C   C826      1.0  0.13143268179239395  0.7373462396803494  0.49977294040414716  1.0000
  H   H621      1.0  0.059390271823671625  0.2769539686518237  0.5032386239075294  1.0000
  H   H622      1.0  0.10507155748897656  0.3382688916591074  0.468162643709742  1.0000
  H   H623      1.0  0.19702772130915658  0.781468493711309  0.494273418286361  1.0000
  H   H624      1.0  0.141730374124317  0.7102207159524296  0.5130815026237102  1.0000
  C   C827      1.0  0.7249083487763643  0.7290966572000115  0.5075032149717564  1.0000
  C   C828      1.0  0.23982327439432186  0.39424224930180835  0.48074825084783657  1.0000
  C   C829      1.0  0.7708204830990208  0.7580019881939409  0.4549694167366389  1.0000
  C   C830      1.0  0.8074785341678505  0.7642743469888109  0.47728256734445423  1.0000
  C   C831      1.0  0.8021811862547198  0.7535701523460071  0.5147862138274844  1.0000
  C   C832      1.0  0.7610451578376233  0.7389667578388579  0.530378976537913  1.0000
  C   C833      1.0  0.19734242201715096  0.36601741936199117  0.4573042522137552  1.0000
  C   C834      1.0  0.6270396609166318  0.2592389577899564  0.4170213075965192  1.0000
  C   C835      1.0  0.6362483610807743  0.2871980210725999  0.3852225362310697  1.0000
  C   C836      1.0  0.6242603448357271  0.32701068325961075  0.38463460777960307  1.0000
  C   C837      1.0  0.6012204138745373  0.33821141355437173  0.413755350983348  1.0000
  C   C838      1.0  0.5858042466313453  0.3073860386922764  0.4421953349275  1.0000
  C   C839      1.0  0.15887285924238323  0.422321949024972  0.4757691438665162  1.0000
  C   C840      1.0  0.2484708048389843  0.3292940814383827  0.42027601199052356  1.0000
  C   C841      1.0  0.25405312169207306  0.2984123268743282  0.3946715872764116  1.0000
  C   C842      1.0  0.21929472640850284  0.27196070121724314  0.3735652371742383  1.0000
  C   C843      1.0  0.18007316739930615  0.2824612840567796  0.3749998951180086  1.0000
  C   C844      1.0  0.17551101907111843  0.3168150977228912  0.39804162691687595  1.0000
  C   C845      1.0  0.20909602441621455  0.3398269656878928  0.42229578533096873  1.0000
  C   C846      1.0  0.2263555848730977  0.23135365589795964  0.34873721558263737  1.0000
  C   C847      1.0  0.786560022756991  0.4846461788235009  0.38544758061440626  1.0000
  C   C848      1.0  0.2732123207608004  0.657632615094582  0.4022865265975609  1.0000
  C   C849      1.0  0.2479109407899663  0.6842590523495945  0.3899512813359282  1.0000
  C   C850      1.0  0.2608715431788852  0.20784842710169252  0.36551146130558276  1.0000
  C   C851      1.0  0.7974877955597492  0.07464600566719426  0.3392347164962531  1.0000
  C   C852      1.0  0.8231755145448556  0.05489717857469412  0.3597137553798759  1.0000
  C   C853      1.0  0.23667970756418044  0.2570783430206379  0.30898312526624216  1.0000
  C   C854      1.0  0.20265718520833445  0.2525325252943809  0.28382316320921985  1.0000
  C   C855      1.0  0.2106942958624532  0.26817000355933696  0.24757442046877004  1.0000
  C   C856      1.0  0.2525688872248155  0.29256805379507533  0.2362977277252565  1.0000
  C   C857      1.0  0.28684550777790474  0.30148145368169965  0.26183407651340906  1.0000
  C   C858      1.0  0.2788303896465657  0.2825185702040868  0.2972020517985756  1.0000
  C   C859      1.0  0.18357336073745364  0.15547292938609636  0.31618735858780234  1.0000
  C   C860      1.0  0.1520388358714553  0.11422473544064782  0.31489616643840906  1.0000
  C   C861      1.0  0.10984574632704737  0.5774131651070888  0.3476598155974138  1.0000
  C   C862      1.0  0.12499180655525027  0.12724817955825274  0.3746679546525872  1.0000
  C   C863      1.0  0.15570679412459193  0.16973777767379072  0.3762263870071926  1.0000
  C   C864      1.0  0.1863217159072865  0.1844933688853648  0.3469002908036531  1.0000
  H   H625      1.0  0.6360454013687683  0.19429195478986777  0.5006815571018683  1.0000
  H   H626      1.0  0.26355214666868443  0.9132921927826757  0.4251763534376761  1.0000
  H   H627      1.0  0.840290423698671  0.7745962720972839  0.4655802594109555  1.0000
  H   H628      1.0  0.7570331605379018  0.729039719099414  0.5594772153033243  1.0000
  H   H629      1.0  0.6574534482777625  0.2821359790664157  0.3626365193084588  1.0000
  H   H630      1.0  0.6363133939794641  0.3518162921548415  0.36247054907574816  1.0000
  H   H631      1.0  0.565081689118872  0.3147768259874238  0.46356892523488535  1.0000
  H   H632      1.0  0.15294087741033421  0.4045160710229198  0.5023750160864755  1.0000
  H   H633      1.0  0.2638535164745037  0.8271912579002044  0.4267741685593654  1.0000
  H   H634      1.0  0.26988686573221465  0.7745429416793197  0.38505937905315074  1.0000
  H   H635      1.0  0.6638035317797211  0.14636556790986943  0.3136724876040168  1.0000
  H   H636      1.0  0.6329768368829566  0.1964303456309017  0.3508329414024587  1.0000
  H   H637      1.0  0.269940987137269  0.646303855808016  0.43072088443212947  1.0000
  H   H638      1.0  0.22458456196118984  0.6905459546218035  0.41014338863079697  1.0000
  H   H639      1.0  0.8044161548647256  0.07938247258819064  0.30941633570416494  1.0000
  H   H640      1.0  0.8445777005058527  0.03907795687766513  0.34508868351779415  1.0000
  H   H641      1.0  0.16898816130476188  0.2346016433107394  0.2914887375166199  1.0000
  H   H642      1.0  0.1829481546404343  0.26207237072921985  0.2288147206738382  1.0000
  H   H643      1.0  0.31940965973734453  0.3209493658482321  0.25195715983424866  1.0000
  H   H644      1.0  0.3064140113913354  0.2876799812015526  0.3159060531086317  1.0000
  H   H645      1.0  0.2070640224197858  0.16375345763653915  0.2932187662135194  1.0000
  H   H646      1.0  0.14239039933526854  0.5615675462930629  0.2984172914685928  1.0000
  H   H647      1.0  0.10382869947682487  0.11376787737473171  0.3985114070670909  1.0000
  H   H648      1.0  0.15606767198393418  0.18956368803502993  0.4019742775156815  1.0000
  C   C865      1.0  0.2601024967875055  0.310946918800179  0.1951176999349453  1.0000
  C   C866      1.0  0.7421331206723315  0.2139987563647939  0.16656538295627987  1.0000
  H   H649      1.0  0.8102144670354606  0.21597138007183306  0.1826757477483827  1.0000
  H   H650      1.0  0.2673205661672482  0.2835805472088472  0.1780510856708173  1.0000
  H   H651      1.0  0.7450495424886335  0.21861542492563424  0.13561334108313394  1.0000
  H   H652      1.0  0.7081645858017948  0.19136200016116717  0.16994667481591108  1.0000
  C   C867      1.0  0.06312730367974007  0.4981751271246401  0.3195489590638915  1.0000
  C   C868      1.0  0.08111981042112555  0.5276338793106999  0.3539076102897938  1.0000
  H   H653      1.0  0.07660982836988936  0.9781926221244021  0.326682866015659  1.0000
  H   H654      1.0  0.11154937771514332  0.01423244905339427  0.29501912128021146  1.0000
  H   H655      1.0  0.10029549228106677  0.5085677055570555  0.3692781416716777  1.0000
  H   H656      1.0  0.05368718754376952  0.5256847328171604  0.3742713139269566  1.0000
  C   C869      1.0  0.755450627014453  0.39638554113945007  0.3923367517992953  1.0000
  C   C870      1.0  0.796277357161003  0.4396134641218898  0.3962412718501838  1.0000
  H   H657      1.0  0.7279104942312002  0.40108065793651976  0.40922351971390897  1.0000
  H   H658      1.0  0.7613202951449375  0.36642431008531534  0.40562843569010815  1.0000
  H   H659      1.0  0.8090934382881405  0.4412659566067832  0.42466437746558555  1.0000
  H   H660      1.0  0.8223871329330202  0.4352923855137252  0.37774824964950576  1.0000
  C   C871      1.0  0.05338149720196017  0.6863489701898907  0.5021274672648054  1.0000
  C   C872      1.0  0.03477840251401765  0.6552787176757491  0.46801636486057324  1.0000
  H   H661      1.0  0.06665322454849493  0.6666742833077943  0.5220889040667542  1.0000
  H   H662      1.0  0.05465446332101301  0.2213751872918358  0.5535866785694911  1.0000
  H   H663      1.0  0.02040541254595518  0.6731804323578983  0.4472728988265301  1.0000
  H   H664      1.0  0.06266460664824142  0.647007980251445  0.45397078228558313  1.0000
  C   C873      1.0  0.5960110267506803  0.4137542325582894  0.4467581097996478  1.0000
  C   C874      1.0  0.5898652436892686  0.38369796841912407  0.4110857619860186  1.0000
  H   H665      1.0  0.5776195536997291  0.4388137397654014  0.44043436262789176  1.0000
  H   H666      1.0  0.5770174949544091  0.39320339337208254  0.47013740817351996  1.0000
  H   H667      1.0  0.6069861753856245  0.4036300779011153  0.3865502980927552  1.0000
  H   H668      1.0  0.5548298937329924  0.37393546184305465  0.4041572080340457  1.0000
  C   C875      1.0  0.8399635720517589  0.7468636489073239  0.5393076124467893  1.0000
  C   C876      1.0  0.8611461833996468  0.7111538617726688  0.523422292038023  1.0000
  H   H669      1.0  0.8653705562899127  0.7801438978861176  0.5427676698405881  1.0000
  H   H670      1.0  0.8314924214652155  0.7382455736811002  0.569024723266376  1.0000
  H   H671      1.0  0.8724277270320521  0.7219729311722632  0.4941327655467757  1.0000
  H   H672      1.0  0.8923750718022797  0.7136154926795433  0.5383961826942764  1.0000
  C   C877      1.0  0.008391244786132512  0.09488110015111673  0.7139139233680071  1.0000
  C   C878      1.0  0.9653294097465546  0.05485389372843574  0.7204486496491411  1.0000
  H   H673      1.0  0.028932136638903927  0.08315761572923397  0.6934630150323013  1.0000
  H   H674      1.0  0.027929677045693158  0.10163954820996168  0.7398052796708731  1.0000
  H   H675      1.0  0.9429999904697369  0.06311442987665306  0.7411302284777668  1.0000
  H   H676      1.0  0.9744833586045127  0.025428650249124995  0.733031443732444  1.0000
  C   C879      1.0  0.1864537586999187  0.5578031164552222  0.6613126118178887  1.0000
  C   C880      1.0  0.6311478601151048  0.5321412775796984  0.6619399230364391  1.0000
  H   H677      1.0  0.21572364649283768  0.5463818106416178  0.6658219386489941  1.0000
  H   H678      1.0  0.1827025415074506  0.5583346425213233  0.6303943266022434  1.0000
  H   H679      1.0  0.1674706515098566  0.6188211573063493  0.6791839489095995  1.0000
  H   H680      1.0  0.598147196864879  0.5316510344536843  0.6518888782656721  1.0000
  C   C881      1.0  0.9049726300950456  0.3068373911026512  0.4885263473469048  1.0000
  C   C882      1.0  0.9413297784591894  0.28786287613275396  0.5028166656887735  1.0000
  H   H681      1.0  0.9054169685078569  0.30829701597381565  0.45714953420021137  1.0000
  H   H682      1.0  0.8726894214228518  0.2820217337356559  0.4962256783118053  1.0000
  H   H683      1.0  0.9737221185015342  0.3102215706567431  0.49352514571176714  1.0000
  H   H684      1.0  0.9386524034536313  0.25511443744292067  0.4886557478673233  1.0000
  C   C883      1.0  0.03556289504462318  0.2726858126201252  0.8643898502859673  1.0000
  C   C884      1.0  0.05075278688951124  0.3249287756303878  0.8707389149508487  1.0000
  H   H685      1.0  0.010961627620059478  0.2635622244171476  0.8416884981168964  1.0000
  H   H686      1.0  0.0177183155140872  0.25611531072648636  0.890168684397165  1.0000
  H   H687      1.0  0.08502339821936125  0.3378164859209842  0.8815719889537101  1.0000
  H   H688      1.0  0.02953566776992722  0.33409574822362714  0.8918143214503133  1.0000
  C   C885      1.0  0.7508977191410363  0.11916727397635696  0.7282773811344601  1.0000
  C   C886      1.0  0.7973509788436587  0.11540126450968358  0.7352368786891419  1.0000
  H   H689      1.0  0.7305854653175881  0.08535083848223124  0.7170054705840925  1.0000
  H   H690      1.0  0.7507227650345558  0.1436083722185093  0.7045098811993326  1.0000
  H   H691      1.0  0.7989207709457528  0.08145963030109038  0.7262322903008896  1.0000
  H   H692      1.0  0.8036655924138585  0.11526802672427872  0.7654575263164439  1.0000
  C   C887      1.0  0.9818617779454981  0.588186657501807  0.7740739131434408  1.0000
  C   C888      1.0  0.018483046456314156  0.6294813058826804  0.7577385039680015  1.0000
  H   H693      1.0  0.978806416224102  0.5920404028552911  0.8047587148113745  1.0000
  H   H694      1.0  0.9486766659488783  0.5867667511028346  0.7641522688930922  1.0000
  H   H695      1.0  0.006801098582210674  0.6602817714328495  0.7607794161978362  1.0000
  H   H696      1.0  0.019266860220057413  0.625696278097905  0.7270846459027767  1.0000
  C   C889      1.0  0.16190266016599977  0.652384601738945  0.15403884996881123  1.0000
  C   C890      1.0  0.167635593906183  0.6356243593878913  0.19458265691356275  1.0000
  H   H697      1.0  0.1941028248035217  0.6705070028861064  0.1417514266386375  1.0000
  H   H698      1.0  0.14405389341004365  0.6782873913286998  0.15435109905069067  1.0000
  H   H699      1.0  0.7410228969473649  0.562515534619616  0.134597828303328  1.0000
  H   H700      1.0  0.13553930214511473  0.625227619071861  0.20889519838828585  1.0000
  C   C891      1.0  0.9352460915767392  0.2638344020323294  0.3048535608320171  1.0000
  C   C892      1.0  0.9633451380268142  0.23417123456535618  0.3202325313782762  1.0000
  H   H701      1.0  0.9407979773534717  0.29357919665593607  0.3229977642385236  1.0000
  H   H702      1.0  0.9016112908742695  0.24351887364248434  0.31129545630502486  1.0000
  H   H703      1.0  0.9994721354357343  0.25214907455206953  0.31690750061447914  1.0000
  H   H704      1.0  0.9573235411165704  0.23115193084450322  0.3513252259910073  1.0000
  C   C893      1.0  0.8511411833389261  0.4599990871197316  0.09800279851801919  1.0000
  C   C894      1.0  0.8914123890026169  0.5015987369077617  0.08869440021226271  1.0000
  H   H705      1.0  0.83263831498635  0.44980347775065405  0.07187233255785808  1.0000
  H   H706      1.0  0.8290088739756607  0.4699333138275797  0.11836931520997362  1.0000
  H   H707      1.0  0.9150801706484292  0.4890492489956008  0.07206924639327772  1.0000
  H   H708      1.0  0.881502281998503  0.5252139332583704  0.06872452424593867  1.0000
  C   C895      1.0  0.2284830951460885  0.37257626665171617  0.045387421693942054  1.0000
  C   C896      1.0  0.18123914834904173  0.36315365060808324  0.06060042200749072  1.0000
  H   H709      1.0  0.2533046229574648  0.38830211276708965  0.06680883393278658  1.0000
  H   H710      1.0  0.23308375476003376  0.39738152025661816  0.02179714421069212  1.0000
  H   H711      1.0  0.18181258637497125  0.35247753785559066  0.09032878504624398  1.0000
  H   H712      1.0  0.15760636985851909  0.33344276818404045  0.04669267911729391  1.0000
  C   C897      1.0  0.841062108711446  0.10746306266284766  0.0712506474488912  1.0000
  C   C898      1.0  0.8893500873861819  0.13871496716860587  0.07507640196561183  1.0000
  H   H713      1.0  0.8270390031036419  0.09702303480829522  0.09945433479053967  1.0000
  H   H714      1.0  0.8415876347229065  0.07606968441009498  0.05609390823117688  1.0000
  H   H715      1.0  0.9039645923974666  0.14485104138303995  0.04650701750104136  1.0000
  H   H716      1.0  0.9082357838766234  0.11791195562803725  0.08823587228121443  1.0000
  C   C899      1.0  0.019090305082289927  0.6396289236980348  0.9944008035942632  1.0000
  C   C900      1.0  0.0024768443646860927  0.594084773017695  0.9724252195614526  1.0000
  H   H717      1.0  0.009444615298135117  0.6313130574399759  0.024295136865727374  1.0000
  H   H718      1.0  0.0014632350522520987  0.6641671853067488  0.9847042037272512  1.0000
  H   H719      1.0  0.013029921619112095  0.6000416701946338  0.9429640967279111  1.0000
  H   H720      1.0  0.9662766608890206  0.5845574104066061  0.9699497313447509  1.0000
  C   C901      1.0  0.1579920883052991  0.8901705202552926  0.06793686890426076  1.0000
  C   C902      1.0  0.15814778350088782  0.9122897727487098  0.10197764493870021  1.0000
  C   C903      1.0  0.1324574470890316  0.9407041079406603  0.10725493572794154  1.0000
  C   C904      1.0  0.1063685290571269  0.9488509230612344  0.07842956327732575  1.0000
  C   C905      1.0  0.1068315823450876  0.9269236002141729  0.044608205516639465  1.0000
  C   C906      1.0  0.13090604322970198  0.8970720704538538  0.039913217069281304  1.0000
  H   H721      1.0  0.17774228703446895  0.9065213625472315  0.12498843313485897  1.0000
  H   H722      1.0  0.13122125402914633  0.9548055018568965  0.13536860531625572  1.0000
  H   H723      1.0  0.08557184895112589  0.9303481076638003  0.02167055674506524  1.0000
  H   H724      1.0  0.13012517960555503  0.8785751463765586  0.013920590793913945  1.0000
  C   C907      1.0  0.07468354440082901  0.02022806921993725  0.022849226702790215  1.0000
  C   C908      1.0  0.050492707403415604  0.9960111246904009  0.05315989208342686  1.0000
  C   C909      1.0  0.008328889874229306  0.9990366753950536  0.05873817973538098  1.0000
  C   C910      1.0  0.9911179312222493  0.02556591804077568  0.036152162812769895  1.0000
  C   C911      1.0  0.016519062180029742  0.052078728998906865  0.008587038908838718  1.0000
  C   C912      1.0  0.057269818362229524  0.04770245529195427  0.0006120285743511644  1.0000
  C   C913      1.0  0.07028101045860821  0.9731174601403538  0.08679558822786082  1.0000
  C   C914      1.0  0.08818499736905296  0.016477051065658888  0.11236906933926405  1.0000
  C   C915      1.0  0.06298715373747216  0.03155018346311933  0.13823229509421275  1.0000
  C   C916      1.0  0.08025775534510543  0.0731557456541434  0.1558729616930037  1.0000
  C   C917      1.0  0.12329311165968043  0.09746509174174345  0.15048033565730257  1.0000
  C   C918      1.0  0.1484402124315739  0.08181940594336767  0.124968741751317  1.0000
  C   C919      1.0  0.13067798188094573  0.04279853269281242  0.10538144123666515  1.0000
  C   C920      1.0  0.009235261747524648  0.8959588834832334  0.08228063528717189  1.0000
  C   C921      1.0  0.9806839259953387  0.8570828192686547  0.09692258547800381  1.0000
  C   C922      1.0  0.9727581313373551  0.8540665224805771  0.13547268834354886  1.0000
  C   C923      1.0  0.0008193999661967322  0.8861448830922719  0.15821623633449522  1.0000
  C   C924      1.0  0.03257185090078574  0.9226370372625423  0.14329016760970092  1.0000
  C   C925      1.0  0.03486340887045625  0.9299752366933319  0.10490040886728336  1.0000
  C   C926      1.0  0.9279752386563276  0.8197841296913867  0.1522103643542021  1.0000
  C   C927      1.0  0.8578841456450754  0.9183209932532432  0.12149743213835129  1.0000
  C   C928      1.0  0.8582985498102867  0.8842058996068684  0.09667784971112559  1.0000
  C   C929      1.0  0.8781257475758897  0.8514841154566338  0.10629568404396972  1.0000
  C   C930      1.0  0.8977983398984242  0.8513580111069442  0.1412113201186298  1.0000
  C   C931      1.0  0.8946698045615267  0.8848838113747544  0.16625313387440044  1.0000
  C   C932      1.0  0.8732045416897292  0.916595640619786  0.15707976219864572  1.0000
  C   C933      1.0  0.9269225052412202  0.8061886627176776  0.19599312258612434  1.0000
  C   C934      1.0  0.9616408219580407  0.796248624107364  0.2124919702449617  1.0000
  C   C935      1.0  0.960055858574378  0.7814470105418104  0.24961697955302806  1.0000
  C   C936      1.0  0.9219117804917197  0.7754584088497004  0.27070476349357614  1.0000
  C   C937      1.0  0.8875048182975434  0.7862835233695478  0.2549873824558748  1.0000
  C   C938      1.0  0.8900916933163029  0.8011139714790255  0.21845452118146264  1.0000
  C   C939      1.0  0.8740057717084001  0.746328592248457  0.12958496466450709  1.0000
  C   C940      1.0  0.8615216664206765  0.705360384777383  0.11080219782028333  1.0000
  C   C941      1.0  0.8927266197379642  0.6869682846112569  0.096759428300085  1.0000
  C   C942      1.0  0.9364489033796446  0.7097638478319962  0.10362609504664033  1.0000
  C   C943      1.0  0.9486270319928538  0.7508580003866845  0.12184062482293956  1.0000
  C   C944      1.0  0.9171625857434974  0.7710837296065184  0.13321099229101674  1.0000
  H   H725      1.0  0.10747139110215663  0.01830359471475873  0.01732438709187889  1.0000
  H   H726      1.0  0.9878643708646587  0.9812379757251722  0.08145078412361872  1.0000
  H   H727      1.0  0.9586561820858804  0.02795698926967427  0.04207645620410361  1.0000
  H   H728      1.0  0.0769374990054421  0.06855434249000347  0.9786842664729993  1.0000
  H   H729      1.0  0.02869795324085067  0.012945145441330075  0.1431270104317819  1.0000
  H   H730      1.0  0.05995161589565692  0.08683186775050356  0.17405092175701053  1.0000
  H   H731      1.0  0.18269598562011377  0.09975209077037683  0.11947203268832252  1.0000
  H   H732      1.0  0.14910327131030168  0.034809108429348035  0.08205277784904386  1.0000
  H   H733      1.0  0.011750837766010491  0.8994294698943877  0.05230191037195664  1.0000
  H   H734      1.0  0.9609534654892931  0.8310903189610929  0.07857021601691105  1.0000
  H   H735      1.0  0.9960042239677354  0.8859163103958454  0.188152765427835  1.0000
  H   H736      1.0  0.05078684655757182  0.9469223920733051  0.16359761015102947  1.0000
  H   H737      1.0  0.8456513209706971  0.8852917780420918  0.06854167568447789  1.0000
  H   H738      1.0  0.8797947614696163  0.8263626800873124  0.08498116788721011  1.0000
  H   H739      1.0  0.9112923425602766  0.8891840399925883  0.19286472435226762  1.0000
  H   H740      1.0  0.8733947266358492  0.943968288127788  0.1763520005766266  1.0000
  H   H741      1.0  0.9906205737376924  0.7996655955329366  0.1964052351131093  1.0000
  H   H742      1.0  0.9882812835019132  0.7746094244931787  0.2618360456517633  1.0000
  H   H743      1.0  0.8568144173208418  0.7797211712548837  0.2700881418832341  1.0000
  H   H744      1.0  0.8609191729017741  0.8055333479434774  0.20687233068756974  1.0000
  H   H745      1.0  0.8485938786101654  0.7590117420496978  0.14159952167988532  1.0000
  H   H746      1.0  0.826590853639465  0.6888982974520138  0.10742090596065212  1.0000
  H   H747      1.0  0.9617068069800091  0.6964076715535803  0.09214883149647801  1.0000
  H   H748      1.0  0.9828332836859396  0.7682933595710657  0.12635839081841982  1.0000
  C   C945      1.0  0.19428727007108967  0.9225167767399025  0.761136674156383  1.0000
  C   C946      1.0  0.15748055177151066  0.8961930400622568  0.7792302425766386  1.0000
  C   C947      1.0  0.11699054085892598  0.8967908544025084  0.7671200416983425  1.0000
  C   C948      1.0  0.1119095618836452  0.9229474550189545  0.7371778864954193  1.0000
  C   C949      1.0  0.15026003844080804  0.9463007646499338  0.7173008413372216  1.0000
  C   C950      1.0  0.19050132672172027  0.9468472517507631  0.7298836354205245  1.0000
  H   H749      1.0  0.1605589479339247  0.8767112648403904  0.8039035461546957  1.0000
  H   H750      1.0  0.08839431082761433  0.8750577935137891  0.7805158086164485  1.0000
  H   H751      1.0  0.14898596907520678  0.9647398595726826  0.6916514077464424  1.0000
  H   H752      1.0  0.21953191827216512  0.9664003865498649  0.7149913233532307  1.0000
  C   C951      1.0  0.08765227030194414  0.012534756242051692  0.7183838674320286  1.0000
  C   C952      1.0  0.06880796165203373  0.969857838653662  0.7019893841059636  1.0000
  C   C953      1.0  0.05827748136091774  0.9692063321950093  0.6641706754862623  1.0000
  C   C954      1.0  0.07147567174092816  0.008514181030054413  0.6433681353015933  1.0000
  C   C955      1.0  0.09126612493112449  0.0507094050858341  0.6597316750249497  1.0000
  C   C956      1.0  0.09713853381960891  0.05271130473245256  0.698132685986534  1.0000
  C   C957      1.0  0.06355060105760497  0.9239548648159825  0.7250508072883729  1.0000
  C   C958      1.0  0.03068484078711675  0.929491065206061  0.7577581953515435  1.0000
  C   C959      1.0  0.9880748963190928  0.9292778103069484  0.7491502476889218  1.0000
  C   C960      1.0  0.9626447754684572  0.9424817286339545  0.7751513131286643  1.0000
  C   C961      1.0  0.9782688064297781  0.9553145508784043  0.8105198510247892  1.0000
  C   C962      1.0  0.019366681985123257  0.9538435747306999  0.8204555605490963  1.0000
  C   C963      1.0  0.04561265194691266  0.9429404355126727  0.7939340799728881  1.0000
  C   C964      1.0  0.06996851522344438  0.8670265804486387  0.6734706346276438  1.0000
  C   C965      1.0  0.0569766057524359  0.8272495701053257  0.6536104677981964  1.0000
  C   C966      1.0  0.01889177907284445  0.7928879743165695  0.6627388305972838  1.0000
  C   C967      1.0  0.9950108358692646  0.8014741829575232  0.6932998578543824  1.0000
  C   C968      1.0  0.009491873253188343  0.8409311341980673  0.7141136502582183  1.0000
  C   C969      1.0  0.04568284719911153  0.8762822725016668  0.7035224989674436  1.0000
  C   C970      1.0  0.9997155882061846  0.749064651751867  0.6359726142541972  1.0000
  C   C971      1.0  0.973931182283395  0.8315488852243955  0.5437747434560191  1.0000
  C   C972      1.0  0.00494620062888762  0.8092966591022841  0.5398814756242973  1.0000
  C   C973      1.0  0.011808389931554641  0.7810945555127035  0.5673171990078102  1.0000
  C   C974      1.0  0.9872150124456898  0.7731879107637396  0.600156800646191  1.0000
  C   C975      1.0  0.9547507566212202  0.7944771358958235  0.6038812851904102  1.0000
  C   C976      1.0  0.9504466509555118  0.8253897941981365  0.5768112589298193  1.0000
  C   C977      1.0  0.957825366428526  0.710178996616719  0.6532700881683999  1.0000
  C   C978      1.0  0.9577558737194427  0.6948100125189308  0.6902645717341312  1.0000
  C   C979      1.0  0.9242123082609836  0.659922485903884  0.7049402785824637  1.0000
  C   C980      1.0  0.889236774653132  0.6388124341957077  0.6820982736738074  1.0000
  C   C981      1.0  0.8910789093339586  0.6486521935992738  0.6438154110134747  1.0000
  C   C982      1.0  0.9246817934232697  0.6845653963790785  0.6300595730820303  1.0000
  C   C983      1.0  0.021655948804593095  0.6857591137988377  0.5996982727151428  1.0000
  C   C984      1.0  0.04215731904702347  0.6522989582392951  0.5984070805657495  1.0000
  C   C985      1.0  0.0716504877230022  0.6499234571961126  0.6253336410319635  1.0000
  C   C986      1.0  0.08429332370167791  0.6847119985728581  0.6514050328414986  1.0000
  C   C987      1.0  0.06459448022128599  0.7190507846825335  0.6524036672925544  1.0000
  C   C988      1.0  0.031254063708726854  0.7186753091333504  0.6277275506597056  1.0000
  H   H753      1.0  0.09729751959317393  0.014266359083120017  0.7477718508409856  1.0000
  H   H754      1.0  0.04158053174828691  0.9378850188077242  0.6500238229387707  1.0000
  H   H755      1.0  0.06379073239503574  0.006098752529404949  0.613696033358674  1.0000
  H   H756      1.0  0.11041730220079082  0.0848645765004068  0.7134750868205009  1.0000
  H   H757      1.0  0.9745247429771491  0.9214417213829045  0.7214810407576975  1.0000
  H   H758      1.0  0.9309830054519798  0.9442104970722738  0.7662564338772886  1.0000
  H   H759      1.0  0.03172538623410448  0.964624827353016  0.8483273074253236  1.0000
  H   H760      1.0  0.07796683465902483  0.9446259471449696  0.8027333153613458  1.0000
  H   H761      1.0  0.09974313600721652  0.8913668016286505  0.663340824322709  1.0000
  H   H762      1.0  0.07794070017660598  0.8250830662933765  0.6302930566297419  1.0000
  H   H763      1.0  0.9630094509257051  0.7794416976690819  0.7019359360649211  1.0000
  H   H764      1.0  0.9899896262311724  0.8432146451357099  0.7383846870010613  1.0000
  H   H765      1.0  0.02658402690268491  0.8171000454434377  0.5156216911006211  1.0000
  H   H766      1.0  0.03948427567451529  0.7682396458230324  0.5628388157794134  1.0000
  H   H767      1.0  0.9356647438625502  0.7912935736989363  0.6296657454111914  1.0000
  H   H768      1.0  0.9295267233521907  0.8468868734336008  0.5820632322259353  1.0000
  H   H769      1.0  0.9853446541672397  0.7102407643083241  0.7085859975925152  1.0000
  H   H770      1.0  0.9256105625118936  0.6498574227543611  0.7341397873203763  1.0000
  H   H771      1.0  0.865014756579968  0.6292662724070381  0.625749973141136  1.0000
  H   H772      1.0  0.9250369927468329  0.6930068087549404  0.6006603374539063  1.0000
  H   H773      1.0  0.9933389668166457  0.6823031409815606  0.5817988050755147  1.0000
  H   H774      1.0  0.0301570800679678  0.6238193167870687  0.5788141539415143  1.0000
  H   H775      1.0  0.10770305814516974  0.6836381298712015  0.672404486861587  1.0000
  H   H776      1.0  0.07356039289626769  0.7428438390527685  0.6756169954337158  1.0000
  C   C989      1.0  0.7870549830913601  0.641071003085367  0.7237568020841879  1.0000
  C   C990      1.0  0.8087299797169691  0.6856203311690838  0.7334112061293243  1.0000
  C   C991      1.0  0.7915442436680439  0.7070905243268757  0.7613532793753444  1.0000
  C   C992      1.0  0.7500470610952165  0.6867001276931456  0.7765184577574336  1.0000
  C   C993      1.0  0.7310228253725659  0.6410828958383027  0.7681074239302315  1.0000
  C   C994      1.0  0.7495879181935802  0.6178983057647893  0.7431753193113374  1.0000
  H   H777      1.0  0.8385564974086019  0.7041673487644143  0.7188536475822437  1.0000
  H   H778      1.0  0.8114232619212761  0.7402858757568829  0.771168027543608  1.0000
  H   H779      1.0  0.6636420230271308  0.08143348123331462  0.8354294512053496  1.0000
  H   H780      1.0  0.7340069662477599  0.5811701037224852  0.7396055527806619  1.0000
  C   C995      1.0  0.5841006089828346  0.11381652500418782  0.8309848246344534  1.0000
  C   C996      1.0  0.6097370088603364  0.13749573044316699  0.8599930456465301  1.0000
  C   C997      1.0  0.0664519618298802  0.10289813497073319  0.8763397070411362  1.0000
  C   C998      1.0  0.022586910284624562  0.07927965686125504  0.8724436261546228  1.0000
  C   C999      1.0  0.007865777560515097  0.058797770207595024  0.838616642284353  1.0000
  C   C1000     1.0  0.5410391978510042  0.08884177704290841  0.8367093911355761  1.0000
  C   C1001     1.0  0.6597671416338613  0.16977444584734735  0.8548957903639581  1.0000
  C   C1002     1.0  0.20958631189780627  0.7427813860262874  0.7958188266833314  1.0000
  C   C1003     1.0  0.2034816279819776  0.7767665702707518  0.8194456738788737  1.0000
  C   C1004     1.0  0.21859451895543655  0.8223273099371204  0.8091949022178955  1.0000
  C   C1005     1.0  0.23603845064210405  0.8343417834152065  0.7738516818148959  1.0000
  C   C1006     1.0  0.23698342812969841  0.8011365373532207  0.7486720283743318  1.0000
  C   C1007     1.0  0.22384398562553548  0.7564345996577964  0.7593560104732328  1.0000
  C   C1008     1.0  0.6782698489819242  0.13070756511358184  0.916653595261081  1.0000
  C   C1009     1.0  0.6872191073232933  0.14014471122029493  0.9536368266076453  1.0000
  C   C1010     1.0  0.733423647891333  0.663112910706567  0.9202374270657149  1.0000
  C   C1011     1.0  0.770312309098642  0.6957692088909693  0.9058824084636372  1.0000
  C   C1012     1.0  0.7734069266371791  0.706057138501608  0.8683365661587313  1.0000
  C   C1013     1.0  0.7380236967483899  0.6865003057105109  0.8451851252229875  1.0000
  C   C1014     1.0  0.7147583967501527  0.6714331237820421  0.9606047633267022  1.0000
  C   C1015     1.0  0.058797320219566226  0.15729298394442015  0.01953826121295177  1.0000
  C   C1016     1.0  0.08424302701968382  0.14734446602790063  0.04791354489689459  1.0000
  C   C1017     1.0  0.6548351019643934  0.17242566741538168  0.05940487372101533  1.0000
  C   C1018     1.0  0.1496192831027331  0.17726518167616967  0.009630682236561938  1.0000
  C   C1019     1.0  0.1236818518882436  0.1946749893715219  0.9858828736849762  1.0000
  C   C1020     1.0  0.07901668723899567  0.18341558645202038  0.9894807707635686  1.0000
  C   C1021     1.0  0.2276406445417129  0.7485546728401152  0.9877591812310442  1.0000
  C   C1022     1.0  0.22109818655876584  0.7847001290410274  0.9668694363478325  1.0000
  C   C1023     1.0  0.22616393348419908  0.8271125238041726  0.9821808935790906  1.0000
  C   C1024     1.0  0.23439818137944593  0.8334148469164276  0.020019293582333564  1.0000
  C   C1025     1.0  0.24451839818844875  0.799622736688216  0.04012700923345114  1.0000
  C   C1026     1.0  0.709111136727417  0.7366286117856204  0.005292951747750463  1.0000
  C   C1027     1.0  0.7838894348651316  0.689874683977975  0.0028793507364663906  1.0000
  C   C1028     1.0  0.8138255504276698  0.678279172918597  0.025130614138864082  1.0000
  C   C1029     1.0  0.8071437417519873  0.6333052069821687  0.035856792059640874  1.0000
  C   C1030     1.0  0.7720182979140755  0.5999574388583166  0.021552408443813675  1.0000
  C   C1031     1.0  0.7442216443874388  0.6111811679838113  0.9964712119209591  1.0000
  C   C1032     1.0  0.7481770361871908  0.6568689316480207  0.9882120830525091  1.0000
  H   H781      1.0  0.5978965148285207  0.11462593806443988  0.8031665257992686  1.0000
  H   H782      1.0  0.07672623573199153  0.11967221261142158  0.9029174487131785  1.0000
  H   H783      1.0  0.9996502198202517  0.07590500358912888  0.8958707464599539  1.0000
  H   H784      1.0  0.5228562398187607  0.07016338176434767  0.8133188405425371  1.0000
  H   H785      1.0  0.1890576826494749  0.7681047367911176  0.8469854802896797  1.0000
  H   H786      1.0  0.2168039732901287  0.8486248178764378  0.8288553421571317  1.0000
  H   H787      1.0  0.24842080496504648  0.8079887820074486  0.7200070000468431  1.0000
  H   H788      1.0  0.22603217697687333  0.7320740026719107  0.7379655418370971  1.0000
  H   H789      1.0  0.6536469250611587  0.09949051017840427  0.9098488157199431  1.0000
  H   H790      1.0  0.6724954441562055  0.11420657314136329  0.9745462628743993  1.0000
  H   H791      1.0  0.7929410543781026  0.7183470430527226  0.9244373178697327  1.0000
  H   H792      1.0  0.8007726662590978  0.7343484956146887  0.8590675506200587  1.0000
  H   H793      1.0  0.0685637402759969  0.12562737613861197  0.07118032107909822  1.0000
  H   H794      1.0  0.6768748496058645  0.1642736804777829  0.0791806489067115  1.0000
  H   H795      1.0  0.1375404703065208  0.21567367137596946  0.9619972254485969  1.0000
  H   H796      1.0  0.05985326510632892  0.19110947534125747  0.9665825047590783  1.0000
  H   H797      1.0  0.21003224488070277  0.779951972886252  0.9379878028013824  1.0000
  H   H798      1.0  0.22062224807268746  0.8544668485638521  0.9655529267053137  1.0000
  H   H799      1.0  0.24993639217302047  0.805744289189055  0.06989194198449677  1.0000
  H   H800      1.0  0.7104727085185276  0.7154653412536501  0.02958367987413557  1.0000
  H   H801      1.0  0.7919464588109097  0.7255232533784562  0.9947411832240597  1.0000
  H   H802      1.0  0.8437699281842873  0.7043804992446386  0.03336161245939717  1.0000
  H   H803      1.0  0.7680837599715971  0.564135859463545  0.02709131332868364  1.0000
  H   H804      1.0  0.7002587610895705  0.11193633738033926  0.05427386178094262  1.0000
  C   C1033     1.0  0.907243371946573  0.8996269833107949  0.5135569088835086  1.0000
  C   C1034     1.0  0.8852895927927761  0.8965489264997083  0.5472910619456521  1.0000
  C   C1035     1.0  0.8782497540855128  0.9350117241690633  0.5632213912310855  1.0000
  C   C1036     1.0  0.8936672162694178  0.9774239909910808  0.5452178405641644  1.0000
  C   C1037     1.0  0.90751751842052  0.9768369783245122  0.5076466807661334  1.0000
  C   C1038     1.0  0.917525946644049  0.9398312057703514  0.49326634467093017  1.0000
  H   H805      1.0  0.8728630584426743  0.8631348582136628  0.5608724904800106  1.0000
  H   H806      1.0  0.8640467167021905  0.9314174028283316  0.5912506691756484  1.0000
  H   H807      1.0  0.9161913585048992  0.007107345412890931  0.4897556522908805  1.0000
  H   H808      1.0  0.9352762602047097  0.9440800403311322  0.4669670954232668  1.0000
  C   C1039     1.0  0.9807026332898211  0.05395723205858327  0.5475470499316973  1.0000
  C   C1040     1.0  0.9409513554526299  0.06304126449765235  0.5536626310488671  1.0000
  C   C1041     1.0  0.9416487518635057  0.10828410485734286  0.5523433083515569  1.0000
  C   C1042     1.0  0.9788992845068464  0.14135414296379478  0.5406353743084747  1.0000
  C   C1043     1.0  0.01765303290514164  0.13128265624543745  0.5334986543019155  1.0000
  C   C1044     1.0  0.018746069412768795  0.0878776339794971  0.5405144129524313  1.0000
  C   C1045     1.0  0.8973270655761791  0.023913915009871722  0.5673678339940609  1.0000
  C   C1046     1.0  0.9084343358248191  0.02422747082854948  0.6110939576763456  1.0000
  C   C1047     1.0  0.8953337988825418  0.052369446117258356  0.6365155338289965  1.0000
  C   C1048     1.0  0.9101086986482888  0.056962907477203784  0.6729727239295118  1.0000
  C   C1049     1.0  0.9409967616019662  0.03646852594484207  0.6845315660686335  1.0000
  C   C1050     1.0  0.9548207851150977  0.008670745361339716  0.6600495502164124  1.0000
  C   C1051     1.0  0.9383432142185614  0.0024579050729791607  0.6241155883071545  1.0000
  C   C1052     1.0  0.8394964331909281  0.0481734036280701  0.5271833462945346  1.0000
  C   C1053     1.0  0.8005969962223984  0.05911854757862289  0.5230172121480173  1.0000
  C   C1054     1.0  0.7676393351382031  0.04805026552001701  0.5507961282161182  1.0000
  C   C1055     1.0  0.7758754793710715  0.025234167788483308  0.5820125972396845  1.0000
  C   C1056     1.0  0.8150493899086816  0.014614634930004922  0.5855936159895268  1.0000
  C   C1057     1.0  0.8492895353372084  0.029643236684201657  0.5599441823987475  1.0000
  C   C1058     1.0  0.7246857568085548  0.06236573355179642  0.5425060557449595  1.0000
  C   C1059     1.0  0.7743916322018705  0.21414036353828717  0.5431530583470519  1.0000
  C   C1060     1.0  0.7627999901788582  0.19144794046979544  0.5094442227780338  1.0000
  C   C1061     1.0  0.7506856686546194  0.1438743063082959  0.5070053042736243  1.0000
  C   C1062     1.0  0.7451217811734346  0.11753254918725498  0.5396170484738769  1.0000
  C   C1063     1.0  0.756343655244134  0.14116766230152766  0.5732105487964351  1.0000
  C   C1064     1.0  0.771607964871693  0.18776953069079313  0.574667711178539  1.0000
  C   C1065     1.0  0.6840486944612838  0.05762812402658701  0.5707350605797333  1.0000
  C   C1066     1.0  0.6806612352674181  0.04902848864905063  0.6096396083490333  1.0000
  C   C1067     1.0  0.6455681432830076  0.054668913398028485  0.629688249849525  1.0000
  C   C1068     1.0  0.6147433456208384  0.07164468998693452  0.6128071080444948  1.0000
  C   C1069     1.0  0.617233050597355  0.0787404018318516  0.5748561858495834  1.0000
  C   C1070     1.0  0.6507243060779133  0.0719014554494386  0.5541014675963734  1.0000
  C   C1071     1.0  0.6892168664909721  0.033173499663411654  0.47532749426421833  1.0000
  C   C1072     1.0  0.670679779395207  0.9972015049501374  0.4510480183570001  1.0000
  C   C1073     1.0  0.6597899279041188  0.9522433720318727  0.4631075842490456  1.0000
  C   C1074     1.0  0.6693631930743847  0.9431301637280565  0.49937348662372477  1.0000
  C   C1075     1.0  0.6859985043851483  0.9792410566005294  0.5233097698463548  1.0000
  C   C1076     1.0  0.700123969024109  0.025107127046968047  0.5114189872418117  1.0000
  H   H809      1.0  0.9820199053497197  0.01893593757902634  0.550663914640908  1.0000
  H   H810      1.0  0.9128597484422412  0.11770844077007392  0.56047584975438  1.0000
  H   H811      1.0  0.9768963755947386  0.17592649237264818  0.5371978213530094  1.0000
  H   H812      1.0  0.04899601510660889  0.07911226054829301  0.5366914714905023  1.0000
  H   H813      1.0  0.8731867735018591  0.07151840930580833  0.627761307317206  1.0000
  H   H814      1.0  0.9018496633473675  0.08139969226955479  0.6913729153220636  1.0000
  H   H815      1.0  0.9796261854335431  0.9928386676088122  0.6680414388796505  1.0000
  H   H816      1.0  0.9492102776662569  0.9797959110979292  0.6059938893389818  1.0000
  H   H817      1.0  0.8644786034832821  0.05874317210195845  0.5059363434527758  1.0000
  H   H818      1.0  0.7965298041859479  0.07803800235980951  0.4987208579120489  1.0000
  H   H819      1.0  0.7513942756864883  0.012117196050322354  0.6034030658758202  1.0000
  H   H820      1.0  0.8196578238154704  0.9962222297657212  0.6107029430602983  1.0000
  H   H821      1.0  0.7644790987286142  0.21035509900523158  0.48350223148891713  1.0000
  H   H822      1.0  0.74328640286975  0.12684332771511375  0.480092809081369  1.0000
  H   H823      1.0  0.7541342751777679  0.12257336611649094  0.5989528131953405  1.0000
  H   H824      1.0  0.7799427781789214  0.20398890362348632  0.6013242183847491  1.0000
  H   H825      1.0  0.7064893052914573  0.0418410043951174  0.6263097710446855  1.0000
  H   H826      1.0  0.6440188410707036  0.04857323998037266  0.659458808710154  1.0000
  H   H827      1.0  0.1633358770622565  0.22353686792982672  0.6088266355142302  1.0000
  H   H828      1.0  0.6518202792245444  0.08206015954185686  0.5247022319682495  1.0000
  H   H829      1.0  0.6972190949888917  0.06752671705039637  0.4637545868511381  1.0000
  H   H830      1.0  0.6627460018179798  0.003385830812807633  0.42245894250888766  1.0000
  H   H831      1.0  0.6599778332600772  0.9086728821310893  0.5102206259005447  1.0000
  H   H832      1.0  0.6912114766670255  0.971185182627249  0.5517300624069648  1.0000
  C   C1077     1.0  0.9030610884406636  0.0298452590433389  0.13385518183831757  1.0000
  C   C1078     1.0  0.9383095750320889  0.019267776053309538  0.14770947668747159  1.0000
  C   C1079     1.0  0.9513276656672989  0.028338168600405833  0.1842820020344469  1.0000
  C   C1080     1.0  0.9308777030436701  0.05235147800041373  0.20698203982444632  1.0000
  C   C1081     1.0  0.8990273896545373  0.0687603535940855  0.19130619984933794  1.0000
  C   C1082     1.0  0.8858514866438135  0.0578398514739602  0.15529909851549561  1.0000
  H   H833      1.0  0.9496345196755289  0.9938465990388636  0.1331575442499744  1.0000
  H   H834      1.0  0.9751060181427933  0.012046713767952966  0.19507972369525725  1.0000
  H   H835      1.0  0.881740453184759  0.08778637962489455  0.20750189234995367  1.0000
  H   H836      1.0  0.8568009964714689  0.06619245988954758  0.14572346000452696  1.0000
  C   C1083     1.0  0.9573784513509129  0.13919685163102224  0.2508223735312743  1.0000
  C   C1084     1.0  0.9376983053185096  0.09968244236170798  0.27069210474701344  1.0000
  C   C1085     1.0  0.9276047198157873  0.10400758954884126  0.30806888245893754  1.0000
  C   C1086     1.0  0.9374432175187403  0.1466655015077949  0.32496127648313466  1.0000
  C   C1087     1.0  0.9533188770610007  0.18611002866349252  0.3032979415322035  1.0000
  C   C1088     1.0  0.9624791685616975  0.1814564754352581  0.26585083745048665  1.0000
  C   C1089     1.0  0.9337019047682442  0.051660312899153515  0.2516091849565146  1.0000
  C   C1090     1.0  0.9752837631936198  0.040877613180225536  0.2689229745885093  1.0000
  C   C1091     1.0  0.9725920159425854  0.017858889487532004  0.3028816094230309  1.0000
  C   C1092     1.0  0.00890269591146664  0.009855712047270204  0.3176642123534482  1.0000
  C   C1093     1.0  0.0486648535632197  0.02449343797145276  0.2992358904129794  1.0000
  C   C1094     1.0  0.05242691906012609  0.05018915882498853  0.26731137549834066  1.0000
  C   C1095     1.0  0.01609832092026675  0.058155853750121  0.2521484475600847  1.0000
  C   C1096     1.0  0.8507478644732412  0.021539060039979185  0.2672812758120694  1.0000
  C   C1097     1.0  0.8121721409713416  0.987162296897785  0.26631611671303496  1.0000
  C   C1098     1.0  0.8099087686183678  0.9413808987082914  0.26048015324216084  1.0000
  C   C1099     1.0  0.8495793763080194  0.932713932915405  0.254184817923801  1.0000
  C   C1100     1.0  0.8887683616385536  0.9670141185578838  0.2534838046697077  1.0000
  C   C1101     1.0  0.8894260658973766  0.012321403432036693  0.26004863063711303  1.0000
  C   C1102     1.0  0.7637460307833092  0.9001562750304232  0.266003023714718  1.0000
  C   C1103     1.0  0.7868481688068666  0.9396744139490599  0.38231383757644527  1.0000
  C   C1104     1.0  0.7530056180856672  0.949643675274802  0.3634410529788869  1.0000
  C   C1105     1.0  0.7398405017410064  0.9309618408191999  0.3286154346575613  1.0000
  C   C1106     1.0  0.7622373227453505  0.9036593278007037  0.31088756336022744  1.0000
  C   C1107     1.0  0.7928717239259775  0.8903117066969168  0.33229772337990504  1.0000
  C   C1108     1.0  0.8061824482931241  0.9094052803426005  0.3665129088114303  1.0000
  C   C1109     1.0  0.763041896033558  0.8508350651336828  0.2483291630693849  1.0000
  C   C1110     1.0  0.7778152432710885  0.8505261582800994  0.21189166435241155  1.0000
  C   C1111     1.0  0.7788959307091495  0.811111715945744  0.1945539637546873  1.0000
  C   C1112     1.0  0.7696404598655987  0.7704846909569893  0.21470668828247216  1.0000
  C   C1113     1.0  0.7559763256637746  0.7696101634605874  0.25197797643970726  1.0000
  C   C1114     1.0  0.7509818359604077  0.8096000131043203  0.26817385809747785  1.0000
  C   C1115     1.0  0.6822223085546787  0.8890846722283449  0.2565866041049599  1.0000
  C   C1116     1.0  0.6479438531791353  0.9030868717639131  0.24355850344812993  1.0000
  C   C1117     1.0  0.6560243725022589  0.9385755000727171  0.21776813581228627  1.0000
  C   C1118     1.0  0.6971623595734799  0.9555096837301313  0.20192163555964562  1.0000
  C   C1119     1.0  0.7307734322358456  0.9408281424043673  0.2143769982608842  1.0000
  C   C1120     1.0  0.724544531029993  0.911076479737016  0.24492030327279501  1.0000
  H   H837      1.0  0.9687218693705276  0.1377078880751581  0.22190642071636557  1.0000
  H   H838      1.0  0.915370130432106  0.07411366307789269  0.32559421381126863  1.0000
  H   H839      1.0  0.9286461025170544  0.1488793769942618  0.3542198593716732  1.0000
  H   H840      1.0  0.9782597452900578  0.21123897377578085  0.2485904958595344  1.0000
  H   H841      1.0  0.9413337087865808  0.004827295542956911  0.3168315481351031  1.0000
  H   H842      1.0  0.005267494873948175  0.9930037982093349  0.3450352354767517  1.0000
  H   H843      1.0  0.08281209944533785  0.06377299334688002  0.2519639111657488  1.0000
  H   H844      1.0  0.02060045926335774  0.08036191399062598  0.22785068679672044  1.0000
  H   H845      1.0  0.848605871388942  0.056109502993176186  0.2698870084656271  1.0000
  H   H846      1.0  0.7819922178570554  0.9954263575105847  0.2707759337798063  1.0000
  H   H847      1.0  0.8500274601298364  0.8976425063237048  0.2521248178998343  1.0000
  H   H848      1.0  0.9188273478447967  0.9577031769198348  0.24730521112520373  1.0000
  H   H849      1.0  0.73637260933623  0.9728657939533297  0.3751236695288437  1.0000
  H   H850      1.0  0.7162469282589199  0.9439624615664823  0.31466549594548915  1.0000
  H   H851      1.0  0.812416393444882  0.8703017562817809  0.32026066192619324  1.0000
  H   H852      1.0  0.8319445411829692  0.9010495290322529  0.3817230960701869  1.0000
  H   H853      1.0  0.7855947583345377  0.8821291385249664  0.1956943761672451  1.0000
  H   H854      1.0  0.7881944109301495  0.8135700833482948  0.16520667749188567  1.0000
  H   H855      1.0  0.7455617513669119  0.7374799771367655  0.2674056128338628  1.0000
  H   H856      1.0  0.7368206170829588  0.8076603248784285  0.2964003311829393  1.0000
  H   H857      1.0  0.6752508738634767  0.8648566235316564  0.27949021491355447  1.0000
  H   H858      1.0  0.14334174614601217  0.0713861230556243  0.22606861658617441  1.0000
  H   H859      1.0  0.7048597893502835  0.9831710920632396  0.18177557021503654  1.0000
  H   H860      1.0  0.7626422386659906  0.9557041140385679  0.20240154270711075  1.0000
  C   C1121     1.0  0.11108912284241665  0.24782233646220778  0.517807434673777  1.0000
  C   C1122     1.0  0.0757161481114908  0.7646381936200819  0.4718280541033355  1.0000
  C   C1123     1.0  0.10733512315795313  0.8027886082329052  0.45990632789608366  1.0000
  C   C1124     1.0  0.151587471361383  0.8102847577927826  0.46830610950411905  1.0000
  C   C1125     1.0  0.18251192251338128  0.2884387164135855  0.494408444916363  1.0000
  C   C1126     1.0  0.15465324597682642  0.2512833946260728  0.5136216091437179  1.0000
  H   H861      1.0  0.041372572015853315  0.7595086092328376  0.4656562118903316  1.0000
  H   H862      1.0  0.09616904734048523  0.8252923883635781  0.44179306809228597  1.0000
  H   H863      1.0  0.21716786564911866  0.2916645405307592  0.49170228620674133  1.0000
  H   H864      1.0  0.16731851321531327  0.22677461824282893  0.5278275358418353  1.0000
  C   C1127     1.0  0.6648531763496934  0.2236035799790241  0.4963072569007648  1.0000
  C   C1128     1.0  0.2292023246941209  0.8773640996833514  0.4735468305810681  1.0000
  C   C1129     1.0  0.7127884531171598  0.27992639376548817  0.45815942087043393  1.0000
  C   C1130     1.0  0.7352162008017743  0.29960680657802563  0.48949685125004355  1.0000
  C   C1131     1.0  0.7219821684245483  0.2816848465928099  0.5246122142149149  1.0000
  C   C1132     1.0  0.6848518407271227  0.24495903059455837  0.5280047582937129  1.0000
  C   C1133     1.0  0.18727513241096866  0.8528621059724976  0.4493798768655182  1.0000
  C   C1134     1.0  0.6758923522974644  0.7590457988500267  0.4299050985425346  1.0000
  C   C1135     1.0  0.6900202958159861  0.7833731020127228  0.3966716692333149  1.0000
  C   C1136     1.0  0.6845332709375342  0.8259022923921213  0.3910793163074025  1.0000
  C   C1137     1.0  0.6643285304777016  0.8452529615541112  0.417952428732574  1.0000
  C   C1138     1.0  0.6501167333288932  0.8214499195046008  0.4508651697955392  1.0000
  C   C1139     1.0  0.1474222712957591  0.9099649527074033  0.47549627755172064  1.0000
  C   C1140     1.0  0.23588916923175243  0.8163257802483892  0.40792951450972403  1.0000
  C   C1141     1.0  0.2386694807046004  0.7818603932419717  0.38481183023148063  1.0000
  C   C1142     1.0  0.20326972802028376  0.756176434234501  0.3639305245126438  1.0000
  C   C1143     1.0  0.1661546322963086  0.7711604514114153  0.3658715323189212  1.0000
  C   C1144     1.0  0.16452091713428463  0.8088313324074535  0.38667125944879854  1.0000
  C   C1145     1.0  0.1976330541028103  0.8286430111258553  0.4116793165470687  1.0000
  C   C1146     1.0  0.20644440252240137  0.7136112632466641  0.3385117614147845  1.0000
  C   C1147     1.0  0.8160501002065343  0.04792172501498548  0.39771812561582964  1.0000
  C   C1148     1.0  0.28221564129698645  0.1689815813874762  0.4178961676367399  1.0000
  C   C1149     1.0  0.26122562508902736  0.1988514281445686  0.40409532082862815  1.0000
  C   C1150     1.0  0.24693692794166425  0.6955632813248734  0.3521100682778934  1.0000
  C   C1151     1.0  0.7808169405076547  0.5352072806132787  0.33520079592494606  1.0000
  C   C1152     1.0  0.7996965142299001  0.5040962488957627  0.3504953748274539  1.0000
  C   C1153     1.0  0.2046838051563961  0.7326442644522266  0.2970698382233654  1.0000
  C   C1154     1.0  0.16556546313385267  0.7262860843231909  0.277555677133298  1.0000
  C   C1155     1.0  0.16468574252611673  0.7443117926989451  0.24249123046015655  1.0000
  C   C1156     1.0  0.20267746688348212  0.7722419968205652  0.22649648221999297  1.0000
  C   C1157     1.0  0.24116423450179475  0.7834549480859772  0.24632570544673157  1.0000
  C   C1158     1.0  0.24210124928850582  0.7618363190434315  0.280445528320818  1.0000
  C   C1159     1.0  0.16863110704293244  0.6310890163903773  0.31545596434195866  1.0000
  C   C1160     1.0  0.14013256854788925  0.5872942455989585  0.3188991434070073  1.0000
  C   C1161     1.0  0.1240396981331217  0.09871142463905347  0.34420819736799  1.0000
  C   C1162     1.0  0.10924559632368724  0.6108555749812417  0.373874673201326  1.0000
  C   C1163     1.0  0.1391370196521946  0.6536753033649166  0.37073811710857335  1.0000
  C   C1164     1.0  0.16915909728846706  0.6652335362025299  0.3416567566719123  1.0000
  H   H865      1.0  0.6927675845715769  0.7144052151418743  0.5198412732881807  1.0000
  H   H866      1.0  0.2719073153109677  0.4320133529533414  0.4328250494163259  1.0000
  H   H867      1.0  0.7659153783211349  0.3269454755667083  0.48692290611563216  1.0000
  H   H868      1.0  0.6726143523210676  0.2295378538178844  0.5547709746367995  1.0000
  H   H869      1.0  0.7091729981004314  0.7716630278607315  0.37631921781531885  1.0000
  H   H870      1.0  0.6972164614054152  0.8454852417215176  0.36602625033246505  1.0000
  H   H871      1.0  0.6353967949986044  0.8340793548178371  0.473940658251907  1.0000
  H   H872      1.0  0.14366864031903256  0.8927934600114984  0.5027350870998141  1.0000
  H   H873      1.0  0.2757372002066571  0.34305300306143327  0.43906440494433074  1.0000
  H   H874      1.0  0.28588273659935565  0.29319227535999054  0.3935379261953539  1.0000
  H   H875      1.0  0.6638307911242015  0.6317900166128428  0.32718358976858275  1.0000
  H   H876      1.0  0.6524292152120501  0.6894195543166474  0.3694581771783469  1.0000
  H   H877      1.0  0.27865086009491397  0.1590960942412596  0.44692408003235845  1.0000
  H   H878      1.0  0.24090449750558277  0.2107289393032224  0.423730443274739  1.0000
  H   H879      1.0  0.7901618737225686  0.5484681221826259  0.3073262359939271  1.0000
  H   H880      1.0  0.8225798681046483  0.49298951770114885  0.33365361578950753  1.0000
  H   H881      1.0  0.13411482173339248  0.7077676023186247  0.2889766795876261  1.0000
  H   H882      1.0  0.13353121437685259  0.7380977930358747  0.2278414037159078  1.0000
  H   H883      1.0  0.2703845124560472  0.8079858516614343  0.23485491192259028  1.0000
  H   H884      1.0  0.27288733228096135  0.7698275082699323  0.29470968525312374  1.0000
  H   H885      1.0  0.19260935023669887  0.6369604138552486  0.2934691280899812  1.0000
  H   H886      1.0  0.15227870942663171  0.09171791574211885  0.2919247610093344  1.0000
  H   H887      1.0  0.08441100430673754  0.6011436331304433  0.39582493974101124  1.0000
  H   H888      1.0  0.1386321745580721  0.6781548175327108  0.3925533570182567  1.0000
  C   C1165     1.0  0.19910914904473082  0.7931108457011583  0.18799804741429127  1.0000
  C   C1166     1.0  0.7668073451767422  0.7270335528080054  0.19212479879372446  1.0000
  H   H889      1.0  0.8282857793870585  0.7179249630363003  0.2104001827018488  1.0000
  H   H890      1.0  0.18097015663206956  0.7664888774662157  0.16765122210587857  1.0000
  H   H891      1.0  0.7782188222797543  0.7383602320512525  0.16331349161706732  1.0000
  H   H892      1.0  0.7321004638201056  0.7090986120476612  0.18776456386657947  1.0000
  C   C1167     1.0  0.08664575227675923  0.013623866451778266  0.3167809131488524  1.0000
  C   C1168     1.0  0.10561830576088484  0.047032767095541717  0.34941516178743864  1.0000
  H   H893      1.0  0.04860465516506318  0.4609321908780465  0.3289079923558988  1.0000
  H   H894      1.0  0.08910742926853635  0.497210205035682  0.29894895882422534  1.0000
  H   H895      1.0  0.13233378984726576  0.03461344466949967  0.3615450540492767  1.0000
  H   H896      1.0  0.0804009103888581  0.040556034574982025  0.3722543536413031  1.0000
  C   C1169     1.0  0.8002112243175383  0.9643699828840866  0.4205376260861522  1.0000
  C   C1170     1.0  0.834425355015121  0.012022670681982817  0.41613238228233995  1.0000
  H   H897      1.0  0.7711023390951267  0.9689444127136244  0.4346310305926014  1.0000
  H   H898      1.0  0.8124668840570719  0.9429551257765632  0.4392106837934995  1.0000
  H   H899      1.0  0.8462686002153935  0.02598382806646593  0.4440069422133589  1.0000
  H   H900      1.0  0.8629525053372231  0.00881156482861134  0.3999938869423202  1.0000
  C   C1171     1.0  0.08055006069132875  0.20925613317838904  0.5416565131978641  1.0000
  C   C1172     1.0  0.0591738756754292  0.16629322495102739  0.5181056184816979  1.0000
  H   H901      1.0  0.09784972624828901  0.19961474479741137  0.5656068616944526  1.0000
  H   H902      1.0  0.02594618716045427  0.6958207895357478  0.5161702367850038  1.0000
  H   H903      1.0  0.05085666434461911  0.1789728432029331  0.4909933963992314  1.0000
  H   H904      1.0  0.08319737191209753  0.14809030504081666  0.5107607324205524  1.0000
  C   C1173     1.0  0.6336237192737153  0.9144460367540168  0.43634699401554233  1.0000
  C   C1174     1.0  0.664888855502445  0.8952218578149558  0.41351905438084463  1.0000
  H   H905      1.0  0.613316162162198  0.9280148890207095  0.4175248444042346  1.0000
  H   H906      1.0  0.6093722066743079  0.8884706021012105  0.45329002302599014  1.0000
  H   H907      1.0  0.6992266103314675  0.9151633278323267  0.42069515715448774  1.0000
  H   H908      1.0  0.6621865228625237  0.9030576764399093  0.3831380626304152  1.0000
  C   C1175     1.0  0.7557378580772205  0.2907003465808862  0.557516516113505  1.0000
  C   C1176     1.0  0.7913679120577417  0.26810841831719684  0.5482953225062912  1.0000
  H   H909      1.0  0.7697397001541623  0.3287105506474608  0.5614519797671023  1.0000
  H   H910      1.0  0.739052857357288  0.27831150662577714  0.5850281919763938  1.0000
  H   H911      1.0  0.8093734850315119  0.2847231880522257  0.5229328205042661  1.0000
  H   H912      1.0  0.8151874586548074  0.27698173564001566  0.5713989415105761  1.0000
  C   C1177     1.0  0.080827482045809  0.6037059015122672  0.6297276326166089  1.0000
  C   C1178     1.0  0.046468704675334704  0.5689928944556982  0.6551604609884267  1.0000
  H   H913      1.0  0.08111666762857345  0.5883267583863216  0.601881203233507  1.0000
  H   H914      1.0  0.11395654889508969  0.6080745349943593  0.6398180601544599  1.0000
  H   H915      1.0  0.036161603985403135  0.5867750556172311  0.6789532784166796  1.0000
  H   H916      1.0  0.06182095003180869  0.5463749371056515  0.6696308148369646  1.0000
  C   C1179     1.0  0.09572726567415397  0.09275217670861013  0.6344535646666757  1.0000
  C   C1180     1.0  0.5753224853888488  0.08138504181420902  0.6315870618339269  1.0000
  H   H917      1.0  0.10461582200964689  0.08657117441131756  0.6049502460112587  1.0000
  H   H918      1.0  0.06158384434187334  0.09309388846941213  0.6303633829995345  1.0000
  H   H919      1.0  0.10626180376755522  0.16723470748626346  0.6376238774169288  1.0000
  H   H920      1.0  0.5718098147871608  0.11370865020546383  0.6188242322439548  1.0000
  C   C1181     1.0  0.9242527596204493  0.8613246137770818  0.49799227672099694  1.0000
  C   C1182     1.0  0.970641064887232  0.8657362556495839  0.5133262383905887  1.0000
  H   H921      1.0  0.9247452301735217  0.863628901416532  0.4669614693136833  1.0000
  H   H922      1.0  0.901002280774036  0.8270569164219115  0.5020852714429298  1.0000
  H   H923      1.0  0.987183312685767  0.9015331958249393  0.5222323698611312  1.0000
  H   H924      1.0  0.9891001324580149  0.858919045934937  0.4884588340319039  1.0000
  C   C1183     1.0  0.252935717101658  0.8824793037051984  0.758126705529257  1.0000
  C   C1184     1.0  0.2387146289270861  0.9219375128024173  0.7757336154705475  1.0000
  H   H925      1.0  0.2889532911432446  0.889887538555551  0.7594235237882337  1.0000
  H   H926      1.0  0.24756131493890948  0.8840517856226702  0.7277091440665354  1.0000
  H   H927      1.0  0.2642744730305642  0.9550103663983539  0.7699162181612986  1.0000
  H   H928      1.0  0.23866528268448098  0.919855813050537  0.8070710458501572  1.0000
  C   C1185     1.0  0.8050861987581658  0.6147607577171323  0.6923771758827028  1.0000
  C   C1186     1.0  0.8490826160683137  0.6038922294922602  0.7001046373955202  1.0000
  H   H929      1.0  0.7797114715927351  0.5818302229855924  0.6873755644630486  1.0000
  H   H930      1.0  0.806764504368715  0.631573944406669  0.6642944498970974  1.0000
  H   H931      1.0  0.8473160051663492  0.5690650595134186  0.6885401691468152  1.0000
  H   H932      1.0  0.8528159123808725  0.5994449446139841  0.7308485132140797  1.0000
  C   C1187     1.0  0.9535039196768371  0.974387187314161  0.8390976746537349  1.0000
  C   C1188     1.0  0.9603365425620055  0.02742456368040469  0.8340735587957471  1.0000
  H   H933      1.0  0.9632583858688007  0.9663760524036364  0.8675179672143448  1.0000
  H   H934      1.0  0.9182728419700408  0.9551812122573727  0.8369569399572463  1.0000
  H   H935      1.0  0.938377428531531  0.038514109830573684  0.8537677553924838  1.0000
  H   H936      1.0  0.9495667942478013  0.034626364722293745  0.8058164234130561  1.0000
  C   C1189     1.0  0.1457883028716857  0.1407369703918857  0.1727062815665752  1.0000
  C   C1190     1.0  0.19327888667366633  0.14654652362206178  0.1859473304711372  1.0000
  H   H937      1.0  0.1486763316970517  0.17165697199340402  0.15503748441986698  1.0000
  H   H938      1.0  0.12641942137106627  0.14407507551554466  0.19795325916498538  1.0000
  H   H939      1.0  0.5938043814818327  0.95143323198223  0.23004093125754305  1.0000
  H   H940      1.0  0.20216521196184806  0.1738431836394776  0.2076414198676223  1.0000
  C   C1191     1.0  0.9154097318648468  0.7544795378429426  0.3106400145385572  1.0000
  C   C1192     1.0  0.9379430142985328  0.7171639216769813  0.3210651955966212  1.0000
  H   H941      1.0  0.9243672272054795  0.7828085851539522  0.3309558962442611  1.0000
  H   H942      1.0  0.880499038491981  0.7392511926168386  0.31727038468260926  1.0000
  H   H943      1.0  0.9733646620808205  0.7340550903333622  0.3228458592797714  1.0000
  H   H944      1.0  0.9287743657679194  0.7083635503321027  0.3507541758682909  1.0000
  C   C1193     1.0  0.842038001239966  0.9589970506742761  0.10873178949358753  1.0000
  C   C1194     1.0  0.8790376321522108  0.0036467743708050726  0.09916459014699397  1.0000
  H   H945      1.0  0.8229012241097927  0.9503809016492718  0.08264914546488566  1.0000
  H   H946      1.0  0.8181550564268966  0.9655804575272424  0.12877480488449589  1.0000
  H   H947      1.0  0.9014093420821565  0.9933555569786509  0.07949571104338249  1.0000
  H   H948      1.0  0.8662788443074889  0.027476641336794172  0.08264633241009367  1.0000
  C   C1195     1.0  0.22666222897126598  0.8735076972842681  0.04104687815033925  1.0000
  C   C1196     1.0  0.1832281147130705  0.8550304828378927  0.06295776192294045  1.0000
  H   H949      1.0  0.2531219196035093  0.8905992522153311  0.06071575725395051  1.0000
  H   H950      1.0  0.22416315992412694  0.8989886588098372  0.01998834997962473  1.0000
  H   H951      1.0  0.18924552883306664  0.8416767013569207  0.09083794796354305  1.0000
  H   H952      1.0  0.1601843849002874  0.8244531533670408  0.04959012555275155  1.0000
  C   C1197     1.0  0.8356350678740417  0.6153074575622567  0.06317999325148538  1.0000
  C   C1198     1.0  0.8834178677593632  0.6456870095565876  0.06937152684803127  1.0000
  H   H953      1.0  0.8201394537868005  0.6062617010999249  0.09125146701792386  1.0000
  H   H954      1.0  0.839100823978454  0.5827881094523556  0.052003726564035624  1.0000
  H   H955      1.0  0.9003462507532642  0.6573388372361114  0.04200894288910262  1.0000
  H   H956      1.0  0.9014070548545091  0.6223445162555945  0.08053654131631394  1.0000
  C   C1199     1.0  0.010074678952941563  0.13319637568717946  0.015577480066229166  1.0000
  C   C1200     1.0  0.0016190017828103809  0.09012111584656002  0.9903668830229562  1.0000
  H   H957      1.0  0.9940262663417997  0.12243043467509396  0.04349704887391548  1.0000
  H   H958      1.0  0.9931331961418949  0.15677474795789803  0.0038976765710641015  1.0000
  H   H959      1.0  0.018615218633035946  0.10027581421807996  0.963029616557153  1.0000
  H   H960      1.0  0.9667914455760399  0.07690981566822641  0.9826084779074299  1.0000
