data_image0
_chemical_formula_structural       C6H4C38H24C6H4C38H24C6H4C38H24C6H4C38H24C6H4C38H24C6H4C38H24C6H4C38H24C6H4C38H24C6H4C38H24C6H4C38H24C6H4C38H24C6H4C38H24C6H4C38H24C6H4C38H24C6H4C38H24C6H4C38H24C2H4C2H4C2H4C2H4C2H4C2H4C2H4C2H4C2H4C2H4C2H4C2H4C2H4C2H4C2H4C2H4C2H4C2H4C2H4C2H4C2H4C2H4C2H4C2H4C2H4C2H4C2H4C2H4C2H4C2H4C2H4C2H4C2H4C2H4C2H4C2H4C2H4C2H4C2H4C2H4C2H4C2H4C2H4C2H4C2H4C2H4C2H4C2H4C6H4C38H24C6H4C38H24C6H4C38H24C6H4C38H24C6H4C38H24C6H4C38H24C6H4C38H24C6H4C38H24C6H4C38H24C6H4C38H24C6H4C38H24C6H4C38H24C6H4C38H24C6H4C38H24C6H4C38H24C6H4C38H24C2H4C2H4C2H4C2H4C2H4C2H4C2H4C2H4C2H4C2H4C2H4C2H4C2H4C2H4C2H4C2H4C2H4C2H4C2H4C2H4C2H4C2H4C2H4C2H4C2H4C2H4C2H4C2H4C2H4C2H4C2H4C2H4C2H4C2H4C2H4C2H4C2H4C2H4C2H4C2H4C2H4C2H4C2H4C2H4C2H4C2H4C2H4C2H4
_chemical_formula_sum              "C1600 H1280"
_cell_length_a       41.94320391866894
_cell_length_b       30.146930864230903
_cell_length_c       49.548465563786145
_cell_angle_alpha    91.66720000053884
_cell_angle_beta     89.9185000002471
_cell_angle_gamma    89.8104999997201

_space_group_name_H-M_alt    "P 1"
_space_group_IT_number       1

loop_
  _space_group_symop_operation_xyz
  'x, y, z'

loop_
  _atom_site_type_symbol
  _atom_site_label
  _atom_site_symmetry_multiplicity
  _atom_site_fract_x
  _atom_site_fract_y
  _atom_site_fract_z
  _atom_site_occupancy
  C   C1        1.0  0.09046634992147698  0.24327829182661992  0.7529059625611711  1.0000
  C   C2        1.0  0.11147563816117304  0.24972067238917045  0.7740578762735858  1.0000
  C   C3        1.0  0.12297205182154616  0.29116716773550966  0.7801736787396897  1.0000
  C   C4        1.0  0.11539921564628441  0.32715354751778497  0.7654303345312081  1.0000
  C   C5        1.0  0.09683512923126733  0.3192422085957615  0.7426732498182811  1.0000
  C   C6        1.0  0.08431772442515696  0.2785153282796299  0.7364423596200651  1.0000
  H   H1        1.0  0.11913799348242742  0.22271400315050874  0.7869557786022326  1.0000
  H   H2        1.0  0.13698392248041152  0.2952580619193586  0.7981838992737424  1.0000
  H   H3        1.0  0.08897252176189623  0.34599657957988245  0.7299792748746051  1.0000
  H   H4        1.0  0.06844706803194986  0.2748227508653256  0.7194780240901196  1.0000
  C   C7        1.0  0.18186548155841475  0.36440831250109723  0.7879511865308524  1.0000
  C   C8        1.0  0.1543739985439329  0.3896909680180256  0.7895119377049357  1.0000
  C   C9        1.0  0.15535745495556774  0.4308053166089355  0.8031508435017436  1.0000
  C   C10       1.0  0.18249918159659198  0.44570483387646814  0.8156853108868782  1.0000
  C   C11       1.0  0.20934654625836238  0.41934811076306383  0.8144577084110145  1.0000
  C   C12       1.0  0.2088665521572515  0.3791346680426599  0.8005825699009235  1.0000
  C   C13       1.0  0.12398921001812692  0.3771639593529622  0.7728322928807416  1.0000
  C   C14       1.0  0.09302710640222364  0.3898346555365093  0.78995007872017  1.0000
  C   C15       1.0  0.06786674559606429  0.41639475353312516  0.781974700793095  1.0000
  C   C16       1.0  0.048375128528520335  0.43745550345534756  0.8004331577574796  1.0000
  C   C17       1.0  0.05171599339788416  0.4279671785120914  0.8273838779019346  1.0000
  C   C18       1.0  0.07237227747892587  0.39519060821509944  0.8350079353836144  1.0000
  C   C19       1.0  0.09271232442762595  0.3763070433258994  0.8163657418644539  1.0000
  C   C20       1.0  0.1561063462591947  0.3839048614147415  0.728454867194873  1.0000
  C   C21       1.0  0.16634333880789606  0.4060899435085052  0.7065437782671217  1.0000
  C   C22       1.0  0.1555616728562896  0.4483782064194816  0.7013103150805449  1.0000
  C   C23       1.0  0.13474502703313843  0.46805211147775266  0.7199706803468807  1.0000
  C   C24       1.0  0.12436151549134547  0.44609152522043655  0.7420675249124272  1.0000
  C   C25       1.0  0.1339018604238836  0.40305567870846853  0.7464428778157113  1.0000
  C   C26       1.0  0.17167965443890032  0.4746109078576093  0.6776809865031883  1.0000
  C   C27       1.0  0.25438181007600785  0.5178407801386001  0.7247336971899111  1.0000
  C   C28       1.0  0.2571852565604952  0.48259314648240503  0.7066992476596241  1.0000
  C   C29       1.0  0.2304687345014805  0.4670928622221862  0.6935328072893822  1.0000
  C   C30       1.0  0.20190444022236723  0.49104693370092034  0.694946165403041  1.0000
  C   C31       1.0  0.2009412972959006  0.5286031390463879  0.7118681001895765  1.0000
  C   C32       1.0  0.22644214811195207  0.5408974016309125  0.7272878372095947  1.0000
  C   C33       1.0  0.14992206668587213  0.5119337139973135  0.6662105758693369  1.0000
  C   C34       1.0  0.11750271149143492  0.5031263355151023  0.6628023637323995  1.0000
  C   C35       1.0  0.09723350261237033  0.5334168916569938  0.6520951664799238  1.0000
  C   C36       1.0  0.10837771047290022  0.5739660768370612  0.6447618569530539  1.0000
  C   C37       1.0  0.1408157771944841  0.5819964737251119  0.6457956274590444  1.0000
  C   C38       1.0  0.1613265244191333  0.5509079980109507  0.6556325999301101  1.0000
  C   C39       1.0  0.20651472933173967  0.45089149491471175  0.635120735534881  1.0000
  C   C40       1.0  0.2125248176808285  0.42272030477409045  0.6133630969166126  1.0000
  C   C41       1.0  0.1909324662853152  0.3898938191966988  0.6064881192351721  1.0000
  C   C42       1.0  0.16402762113192035  0.38532649644218414  0.6218230547683707  1.0000
  C   C43       1.0  0.15790554339940174  0.4142699454207634  0.6428740143298096  1.0000
  C   C44       1.0  0.1795897218906627  0.4457155763740517  0.6512552279438067  1.0000
  H   H5        1.0  0.1822690046553285  0.33293033185471294  0.7770764053877572  1.0000
  H   H6        1.0  0.13489202972876846  0.45254692482167197  0.8026925116563143  1.0000
  H   H7        1.0  0.18313155196154782  0.47891509199776766  0.8244117876972119  1.0000
  H   H8        1.0  0.23015344205166033  0.35902894601134244  0.799367081923177  1.0000
  H   H9        1.0  0.06507272560978253  0.4271113450293604  0.761424473820495  1.0000
  H   H10       1.0  0.03299581394527002  0.46354492805909475  0.7937136494685415  1.0000
  H   H11       1.0  0.07308427296370669  0.3846647384469055  0.8553845212165361  1.0000
  H   H12       1.0  0.11090595353754458  0.35382845830888515  0.8234910858403142  1.0000
  H   H13       1.0  0.1661128760996259  0.35161216595558326  0.7319155754903176  1.0000
  H   H14       1.0  0.1829733463229147  0.390478727744824  0.692791803821221  1.0000
  H   H15       1.0  0.12707830006971801  0.5024729281836118  0.719191314301349  1.0000
  H   H16       1.0  0.10965398823519378  0.4644105068489334  0.7567422202982453  1.0000
  H   H17       1.0  0.2796532478752474  0.46538251492352944  0.7043793212702041  1.0000
  H   H18       1.0  0.2323133007062717  0.43663249851804375  0.6816161793082184  1.0000
  H   H19       1.0  0.18006871190887766  0.5493426610479536  0.7126515044011474  1.0000
  H   H20       1.0  0.22477368269955958  0.5700267350782585  0.740573403477988  1.0000
  H   H21       1.0  0.10706531691390567  0.47270950295647485  0.6696208070892937  1.0000
  H   H22       1.0  0.07208741965138717  0.526105003965166  0.6503405833359673  1.0000
  H   H23       1.0  0.15160097414138357  0.6123215471057469  0.6392780274720575  1.0000
  H   H24       1.0  0.18651802831313935  0.5578001621763079  0.6546452683335684  1.0000
  H   H25       1.0  0.22340602210713198  0.47715778839409895  0.6388964207813698  1.0000
  H   H26       1.0  0.2343006781002893  0.4263652107013294  0.6021147854149077  1.0000
  H   H27       1.0  0.14658473442099357  0.3601202588998816  0.6167692899705305  1.0000
  H   H28       1.0  0.135868805920896  0.40968012361779826  0.653785138967256  1.0000
  C   C45       1.0  0.15364311373998696  0.29546022666475963  0.9961125885935485  1.0000
  C   C46       1.0  0.15839900651870717  0.3339035659532711  0.9822011065891063  1.0000
  C   C47       1.0  0.13308599067227575  0.3592668486142485  0.9741146790959581  1.0000
  C   C48       1.0  0.1021805767622854  0.34582422635211524  0.9793986193580227  1.0000
  C   C49       1.0  0.09784830163059664  0.3078973649837798  0.9941702307287773  1.0000
  C   C50       1.0  0.12329079868531355  0.2823179183244721  0.0015551441805380952  1.0000
  H   H29       1.0  0.1823220960438873  0.34500591300174716  0.9775471202291296  1.0000
  H   H30       1.0  0.13756099536696106  0.390632804003567  0.9648430498703561  1.0000
  H   H31       1.0  0.07414058172558338  0.297134630565579  0.9988645987491444  1.0000
  H   H32       1.0  0.11955943328583998  0.2516766762421237  0.011921069963806612  1.0000
  C   C51       1.0  0.060464308118979466  0.30264141543971573  0.9379629976315841  1.0000
  C   C52       1.0  0.047836043165957486  0.3355693947911706  0.9546587951199341  1.0000
  C   C53       1.0  0.015002185335257342  0.3380642456040002  0.9572331259698129  1.0000
  C   C54       1.0  0.9958174992736224  0.31040305889705017  0.9420193354177849  1.0000
  C   C55       1.0  0.008999832040943005  0.2780963696757646  0.9252124883633617  1.0000
  C   C56       1.0  0.04145234010547195  0.2734513766584245  0.9242473666800345  1.0000
  C   C57       1.0  0.07180151433455681  0.37110789999579813  0.968107907112908  1.0000
  C   C58       1.0  0.07353482943213631  0.4041776329627416  0.9428794647840973  1.0000
  C   C59       1.0  0.04682566977877725  0.4308765947276573  0.938986672722477  1.0000
  C   C60       1.0  0.04287352534096445  0.45494494405719715  0.9162255498435109  1.0000
  C   C61       1.0  0.06479302392083812  0.45282210645760407  0.8960448150634818  1.0000
  C   C62       1.0  0.09181345119780027  0.42778364403405916  0.8993540921324632  1.0000
  C   C63       1.0  0.09612987863864203  0.4036538096285267  0.9223554858907512  1.0000
  C   C64       1.0  0.03914110778639994  0.3785033146717095  0.012866404633542439  1.0000
  C   C65       1.0  0.01957042113236352  0.4054351275897936  0.02861545409404309  1.0000
  C   C66       1.0  0.023407114114498615  0.45163748032096673  0.028928613870369508  1.0000
  C   C67       1.0  0.04944185887965211  0.46708941460788966  0.01500568366520668  1.0000
  C   C68       1.0  0.06730311918415303  0.440770994223019  0.9983456944131296  1.0000
  C   C69       1.0  0.06009822682748774  0.39673737105175755  0.9950364173441482  1.0000
  C   C70       1.0  0.9965204202779173  0.4854631251948152  0.038731463838405394  1.0000
  C   C71       1.0  0.4653964827169157  0.4590162912223453  0.9593228768950084  1.0000
  C   C72       1.0  0.4553703889665695  0.43123140698068085  0.9791421958145446  1.0000
  C   C73       1.0  0.46914706464579065  0.4322186351763461  0.0038798901211257114  1.0000
  C   C74       1.0  0.4927804519784784  0.46208434823985156  0.010437407379408325  1.0000
  C   C75       1.0  0.9842329922160045  0.5072588544893204  0.9894637482102934  1.0000
  C   C76       1.0  0.4904522976846279  0.4870258588527277  0.9648006491269463  1.0000
  C   C77       1.0  0.0061665063725320525  0.535559151219423  0.04610636647547731  1.0000
  C   C78       1.0  0.03608307709667378  0.5475567420715121  0.05511490918363692  1.0000
  C   C79       1.0  0.04414478935168842  0.5913024144030219  0.05843751220054695  1.0000
  C   C80       1.0  0.021747732695957502  0.6239666116660021  0.05567702189626925  1.0000
  C   C81       1.0  0.9916988341590838  0.6128297139377404  0.0478108763605499  1.0000
  C   C82       1.0  0.9841328126801386  0.5695113949569149  0.04302019808015222  1.0000
  C   C83       1.0  0.45408529154532207  0.4641416144364029  0.061428985602256896  1.0000
  C   C84       1.0  0.43180182918344523  0.4514907864119484  0.07989087500777475  1.0000
  C   C85       1.0  0.4404986142704512  0.427504984907616  0.10146497897956941  1.0000
  C   C86       1.0  0.47176873977188694  0.416584804105944  0.10458042407867744  1.0000
  C   C87       1.0  0.49388911349676434  0.42626994319148226  0.0852127740306062  1.0000
  C   C88       1.0  0.48534175701083654  0.45018176524572096  0.0627854055747655  1.0000
  H   H33       1.0  0.08599268470832612  0.2993884342733327  0.9353018462118663  1.0000
  H   H34       1.0  0.002532037980265409  0.36384251574849463  0.968990246392435  1.0000
  H   H35       1.0  0.4785247527425549  0.284230458887838  0.9449328722149417  1.0000
  H   H36       1.0  0.05130521533517722  0.24884632267653312  0.9100895565472118  1.0000
  H   H37       1.0  0.027374114152329813  0.4315445928345944  0.9532313034251387  1.0000
  H   H38       1.0  0.021651294358309914  0.47468848963095617  0.9133847000350566  1.0000
  H   H39       1.0  0.10924028440275413  0.425190061437793  0.8833407447047082  1.0000
  H   H40       1.0  0.11721617633221319  0.383336837113083  0.9233327220721954  1.0000
  H   H41       1.0  0.03439077019020612  0.34342800351878744  0.011612978085859179  1.0000
  H   H42       1.0  0.000664555783288402  0.3901334836930644  0.039785425174591  1.0000
  H   H43       1.0  0.05315501495382226  0.5021629025558823  0.012753113885317583  1.0000
  H   H44       1.0  0.0856951009323183  0.45644421735907975  0.9866915472245024  1.0000
  H   H45       1.0  0.4359017260144387  0.40874542418099874  0.9765900748778807  1.0000
  H   H46       1.0  0.4600067648987849  0.4096007142121314  0.018474670201031374  1.0000
  H   H47       1.0  0.004449491883073618  0.529458868514372  0.9902673432520593  1.0000
  H   H48       1.0  0.49923589015121117  0.510192364216714  0.950301613963826  1.0000
  H   H49       1.0  0.05434703521929239  0.5233184105602088  0.059340648035174956  1.0000
  H   H50       1.0  0.06827371386001195  0.5996966578813514  0.06423530909107754  1.0000
  H   H51       1.0  0.5073547961704364  0.620489871589338  0.04748418872799275  1.0000
  H   H52       1.0  0.48663942549622596  0.5491592791346033  0.031610561845188165  1.0000
  H   H53       1.0  0.44630057600826256  0.485519607931771  0.045599778545881584  1.0000
  H   H54       1.0  0.4072404225478513  0.4618891181151534  0.07772419701953572  1.0000
  H   H55       1.0  0.47878375275236623  0.3972326768128634  0.12157020005466863  1.0000
  H   H56       1.0  0.01695437029792854  0.4391987141328334  0.0833128169092448  1.0000
  C   C89       1.0  0.42311756517385946  0.37905331893426614  0.9236557753553174  1.0000
  C   C90       1.0  0.4327489921199625  0.335985133677327  0.9182829954403943  1.0000
  C   C91       1.0  0.41848428029579937  0.3026867205175463  0.9314474167276167  1.0000
  C   C92       1.0  0.3971672206788369  0.31197338107635925  0.9524438610475289  1.0000
  C   C93       1.0  0.38553857718103596  0.35460964472310275  0.9551595277087734  1.0000
  C   C94       1.0  0.39612851142481453  0.387293402773308  0.939061378794199  1.0000
  H   H57       1.0  0.45155839034660444  0.32774493141034067  0.9040262502396154  1.0000
  H   H58       1.0  0.42505156002725414  0.2685515864194357  0.9264925869977327  1.0000
  H   H59       1.0  0.3672783946104751  0.3633460808422984  0.969624238460562  1.0000
  H   H60       1.0  0.386815898854739  0.4203574652046746  0.9419567438441802  1.0000
  C   C95       1.0  0.40105924676728866  0.31586293339836763  0.015554066613306317  1.0000
  C   C96       1.0  0.3800725893427093  0.288428918240251  0.001410662436749588  1.0000
  C   C97       1.0  0.3589222252411559  0.26439168192269774  0.016884500987353793  1.0000
  C   C98       1.0  0.35910588771702867  0.26774624678371545  0.04472410224031895  1.0000
  C   C99       1.0  0.38221041540404455  0.29272025349634256  0.05794748075171123  1.0000
  C   C100      1.0  0.40240608050656396  0.31756717503251203  0.043073299963565403  1.0000
  C   C101      1.0  0.3836947523040661  0.2740549038145299  0.9703107266871963  1.0000
  C   C102      1.0  0.4067063851940971  0.2321882098086067  0.973046584178636  1.0000
  C   C103      1.0  0.39303286854691893  0.1904432882736155  0.9726690156539871  1.0000
  C   C104      1.0  0.41014032994024135  0.15408266872976245  0.9795318788373106  1.0000
  C   C105      1.0  0.4418801623898454  0.15709692078060694  0.9856214332241607  1.0000
  C   C106      1.0  0.4562915880586252  0.198274885629782  0.9860878414016682  1.0000
  C   C107      1.0  0.4383555527234329  0.23587318467634916  0.9810643628491207  1.0000
  C   C108      1.0  0.3225554255220896  0.28593006553474004  0.9617296238542674  1.0000
  C   C109      1.0  0.2965389339331589  0.28521526315836493  0.9445088647808441  1.0000
  C   C110      1.0  0.29725719183617305  0.26218756792287734  0.9199628725126288  1.0000
  C   C111      1.0  0.3257059652931806  0.24068297633479227  0.9130313605066418  1.0000
  C   C112      1.0  0.351380519570089  0.24201257391328693  0.9299775242894114  1.0000
  C   C113      1.0  0.35084701791792244  0.26448761803149395  0.9546062989614269  1.0000
  C   C114      1.0  0.2668556140754553  0.2641735324065938  0.900688706008361  1.0000
  C   C115      1.0  0.19754712345702669  0.21783378541571102  0.9585859115928863  1.0000
  C   C116      1.0  0.18807192049328555  0.2482467228090972  0.9409633549985797  1.0000
  C   C117      1.0  0.2096925147737181  0.2633778387878229  0.9225796041059171  1.0000
  C   C118      1.0  0.23957751348442488  0.24389226445766446  0.9184687510781895  1.0000
  C   C119      1.0  0.24514811994277494  0.20533311106103955  0.9325942558827  1.0000
  C   C120      1.0  0.22547190612362375  0.19504962603260295  0.9537179024328413  1.0000
  C   C121      1.0  0.270435660664491  0.2361491280053372  0.8728172840070083  1.0000
  C   C122      1.0  0.2913915102632376  0.25135416138864947  0.8533573618649454  1.0000
  C   C123      1.0  0.29293062116245394  0.2326461472999684  0.8279613356455151  1.0000
  C   C124      1.0  0.27467368288763155  0.19636977203734773  0.8218818766737626  1.0000
  C   C125      1.0  0.25519169034116296  0.17917242759780486  0.8410631653591328  1.0000
  C   C126      1.0  0.25324168767431265  0.19848094014453432  0.8660937375520311  1.0000
  C   C127      1.0  0.2350778057634442  0.3233803355450552  0.8761386755741065  1.0000
  C   C128      1.0  0.2291121929071913  0.36367979012471036  0.8666146609710653  1.0000
  C   C129      1.0  0.2503740576560977  0.39736728957538314  0.8710182810366225  1.0000
  C   C130      1.0  0.2785434008008356  0.38970679512647205  0.8845158510220645  1.0000
  C   C131      1.0  0.2834574056746758  0.3488174481998419  0.8954108229953549  1.0000
  C   C132      1.0  0.2614419305553619  0.31433496994538646  0.891689652990393  1.0000
  H   H61       1.0  0.4186375112686817  0.33522692630745005  0.005345865538273069  1.0000
  H   H62       1.0  0.34330696253672044  0.24040556074874855  0.007601706232653778  1.0000
  H   H63       1.0  0.3429602698738053  0.24756945456436505  0.056227020110784495  1.0000
  H   H64       1.0  0.4202645311226074  0.33837492247941175  0.05278771409534664  1.0000
  H   H65       1.0  0.3680916196353668  0.18591745886754052  0.967946380471347  1.0000
  H   H66       1.0  0.398304817155227  0.12257233234174902  0.9789806691729837  1.0000
  H   H67       1.0  0.48129411509590925  0.20019069116906776  0.9906691407729424  1.0000
  H   H68       1.0  0.4494381765600808  0.26806167528474156  0.9817710419059501  1.0000
  H   H69       1.0  0.32185187057916026  0.30793075828561955  0.9789786500899641  1.0000
  H   H70       1.0  0.2753620179563361  0.30459613417968495  0.9486984620463329  1.0000
  H   H71       1.0  0.3297763565760853  0.22520157753083625  0.8934280834701934  1.0000
  H   H72       1.0  0.37394448620336906  0.23019704803235327  0.9225008598681562  1.0000
  H   H73       1.0  0.1656389078236761  0.26534186174128366  0.9439132352900879  1.0000
  H   H74       1.0  0.2020557478398852  0.29292619941469883  0.9127083072235197  1.0000
  H   H75       1.0  0.26789263678838915  0.18870934413317536  0.9308861116481921  1.0000
  H   H76       1.0  0.2332137083559588  0.17120891819605918  0.9679221514751127  1.0000
  H   H77       1.0  0.30579745299516164  0.2796877960786082  0.8582314282740489  1.0000
  H   H78       1.0  0.30828608745087305  0.24664449022909626  0.813018102218102  1.0000
  H   H79       1.0  0.24031907575659842  0.15133117157729806  0.836538400312405  1.0000
  H   H80       1.0  0.23676618871495117  0.1839873369376984  0.8800032004734538  1.0000
  H   H81       1.0  0.21857578305459785  0.2980661105811226  0.8703459263911248  1.0000
  H   H82       1.0  0.20612311575672063  0.3675562937791124  0.8570946845340632  1.0000
  H   H83       1.0  0.2966603177793438  0.41496477871977944  0.885935266384782  1.0000
  H   H84       1.0  0.30617548856692756  0.34493499601517463  0.9055970968287962  1.0000
  C   C133      1.0  0.30106511925766116  0.4587188668959837  0.7594578869594898  1.0000
  C   C134      1.0  0.2788310887725102  0.4260464250371595  0.7640573580779396  1.0000
  C   C135      1.0  0.2837809629878151  0.3831148322329601  0.7550764768071473  1.0000
  C   C136      1.0  0.31015897372719997  0.3724190045234279  0.7393013811756949  1.0000
  C   C137      1.0  0.332218350031339  0.4053220648255141  0.7347382535515963  1.0000
  C   C138      1.0  0.32784750837989696  0.4472431888074851  0.7453404584870573  1.0000
  H   H85       1.0  0.25593080818386277  0.433651096095195  0.7733209109714637  1.0000
  H   H86       1.0  0.26664370550942557  0.3581486440957756  0.7604795429673632  1.0000
  H   H87       1.0  0.35312297863201286  0.3988401293632294  0.7225248203665643  1.0000
  H   H88       1.0  0.3453650817020471  0.4718349585701427  0.741152880304588  1.0000
  C   C139      1.0  0.2958821509888619  0.3641997694190728  0.6816282938063356  1.0000
  C   C140      1.0  0.3156216321220077  0.33268096154714544  0.6930583227797967  1.0000
  C   C141      1.0  0.32923899194363526  0.3014030989376976  0.6755064340911732  1.0000
  C   C142      1.0  0.3244402440114519  0.3024284736403779  0.6481599736748938  1.0000
  C   C143      1.0  0.30386173338724853  0.33303938043778003  0.6378949556036914  1.0000
  C   C144      1.0  0.29067867675312853  0.36492965270310934  0.6543525012957391  1.0000
  C   C145      1.0  0.31589854355543207  0.32619884547979294  0.7247236017748137  1.0000
  C   C146      1.0  0.28993303383796964  0.28799436007237644  0.7259431279185992  1.0000
  C   C147      1.0  0.29933460046067933  0.24364507932255106  0.7243843958275354  1.0000
  C   C148      1.0  0.2777231609701538  0.2101311271557801  0.7200514436676614  1.0000
  C   C149      1.0  0.24579383893294043  0.22084154917100626  0.7179253492481146  1.0000
  C   C150      1.0  0.2360248332732032  0.2641874226843863  0.7203583442866273  1.0000
  C   C151      1.0  0.25793832627215835  0.2970768282879593  0.7224662669589985  1.0000
  C   C152      1.0  0.3747798468482094  0.30253436661367666  0.7288243593874438  1.0000
  C   C153      1.0  0.39916103415686394  0.2808209747256838  0.7407409873686075  1.0000
  C   C154      1.0  0.39780740311571494  0.2686506867439604  0.7675443144526379  1.0000
  C   C155      1.0  0.3718961914378317  0.28508081871420693  0.7825985974461244  1.0000
  C   C156      1.0  0.346095425701067  0.302180727780835  0.7692867830984774  1.0000
  C   C157      1.0  0.34637776020675526  0.31026573123433066  0.7416455365613491  1.0000
  C   C158      1.0  0.419608517772457  0.23009019126898883  0.7794084462752944  1.0000
  C   C159      1.0  0.014748384279964508  0.1994751041234935  0.7387400760962705  1.0000
  C   C160      1.0  0.004373045194378807  0.24223353421031898  0.7432749365580958  1.0000
  C   C161      1.0  0.4696051613611302  0.24814426192618536  0.7521730354250882  1.0000
  C   C162      1.0  0.448558693101569  0.2156569647765645  0.7606228978617486  1.0000
  C   C163      1.0  0.4570923364466346  0.1718529394516427  0.755504522407284  1.0000
  C   C164      1.0  0.48631316467768826  0.16165913818432426  0.7441714094187596  1.0000
  C   C165      1.0  0.3925755555407159  0.19281672839836897  0.7817566398269876  1.0000
  C   C166      1.0  0.3796156152038544  0.18222314564863726  0.8064116625782566  1.0000
  C   C167      1.0  0.35091399343997104  0.16120665035384535  0.8083055624505594  1.0000
  C   C168      1.0  0.3334369138580849  0.15276218180119858  0.7854152182583445  1.0000
  C   C169      1.0  0.346858106540425  0.15897001013666862  0.7606309741938266  1.0000
  C   C170      1.0  0.3770299151444785  0.17636376046377722  0.7586926544950945  1.0000
  C   C171      1.0  0.4553750747797333  0.20697053023103776  0.8183020424801666  1.0000
  C   C172      1.0  0.47439072941597976  0.21466573968339286  0.8403686008004203  1.0000
  C   C173      1.0  0.4762288839217244  0.25684474664763535  0.8516673893776132  1.0000
  C   C174      1.0  0.4578064873979847  0.2899531220494812  0.8416386040196938  1.0000
  C   C175      1.0  0.4403615172794612  0.2831396034244905  0.8186150003481911  1.0000
  C   C176      1.0  0.438502615308326  0.24121849017567887  0.8065287693933884  1.0000
  H   H89       1.0  0.28314191911706876  0.386454443252809  0.6950673103842118  1.0000
  H   H90       1.0  0.3432107684727255  0.2747524497807402  0.6831143389086969  1.0000
  H   H91       1.0  0.33551107439363564  0.27713628297843435  0.6350460294631591  1.0000
  H   H92       1.0  0.27387032001676037  0.38857459444981723  0.6463892378667813  1.0000
  H   H93       1.0  0.32389197699625777  0.23459516628296814  0.7227852820760814  1.0000
  H   H94       1.0  0.2857664181844158  0.1766106486712896  0.716962246647807  1.0000
  H   H95       1.0  0.2114089725915739  0.2745246793656648  0.7190439212409245  1.0000
  H   H96       1.0  0.24902026350355128  0.33056258015929935  0.7212366454001152  1.0000
  H   H97       1.0  0.3779163710180629  0.3107124207727793  0.7079490600487025  1.0000
  H   H98       1.0  0.4180688975562213  0.271875116645139  0.7270576617453703  1.0000
  H   H99       1.0  0.3692514541055042  0.2766208231310855  0.8034880303660022  1.0000
  H   H100      1.0  0.32429231676306824  0.30727993057028086  0.7804078923699531  1.0000
  H   H101      1.0  0.019131303297501078  0.26988761435861197  0.7389339080661436  1.0000
  H   H102      1.0  0.4646419144605855  0.2829568357855047  0.7564777204226891  1.0000
  H   H103      1.0  0.44170431302608865  0.14491584310696576  0.761305347922344  1.0000
  H   H104      1.0  0.4915997754478449  0.12717709472468028  0.7399252778287244  1.0000
  H   H105      1.0  0.39031223407746646  0.19455148005141742  0.825144714833295  1.0000
  H   H106      1.0  0.3400817389258833  0.15426123286448024  0.8272041795131978  1.0000
  H   H107      1.0  0.3330975849233378  0.15228897335955155  0.7425622002522079  1.0000
  H   H108      1.0  0.3874608372271543  0.18316696979624839  0.7390469767152363  1.0000
  H   H109      1.0  0.45339888587443006  0.17343738889967608  0.8102317676511746  1.0000
  H   H110      1.0  0.4888941697803396  0.18813956671168464  0.8478048835612856  1.0000
  H   H111      1.0  0.4594991794080618  0.3232737873376197  0.8498784818223251  1.0000
  H   H112      1.0  0.4268971228842891  0.3102153977980229  0.8106719277494283  1.0000
  C   C177      1.0  0.35240753812178083  0.9191201150260583  0.7045327715796871  1.0000
  C   C178      1.0  0.34792019878335917  0.9643930297343536  0.7059420915273069  1.0000
  C   C179      1.0  0.317690013096936  0.9820932646445598  0.7085810330338099  1.0000
  C   C180      1.0  0.29148059380309804  0.9552824907643207  0.709719795856815  1.0000
  C   C181      1.0  0.2968773717282365  0.9095972874279772  0.7096773951134053  1.0000
  C   C182      1.0  0.32664009963891083  0.8919354719783776  0.7070788352672924  1.0000
  H   H113      1.0  0.36851216557852856  0.9855541342742308  0.705899690783897  1.0000
  H   H114      1.0  0.31530564918729975  0.017709196010531558  0.7108040434382934  1.0000
  H   H115      1.0  0.2769813265092381  0.8873929292722006  0.7113491958535617  1.0000
  H   H116      1.0  0.32981271421756925  0.8564229381321593  0.706670980497351  1.0000
  C   C183      1.0  0.23793004988839242  0.9339776281028702  0.6729098933280799  1.0000
  C   C184      1.0  0.2313803940859548  0.9452322931830738  0.6997455257404225  1.0000
  C   C185      1.0  0.20160354221093146  0.9338873777748167  0.7100711163022103  1.0000
  C   C186      1.0  0.18069404403541883  0.9096386587293633  0.6944514900632603  1.0000
  C   C187      1.0  0.1877996557574525  0.8996417898766337  0.6675593233263714  1.0000
  C   C188      1.0  0.2163336779170945  0.9128518656167667  0.6566986757644128  1.0000
  C   C189      1.0  0.2567547314388739  0.975945872852688  0.7147372171603039  1.0000
  C   C190      1.0  0.24648782613559928  0.023511426457889374  0.7032728637755111  1.0000
  C   C191      1.0  0.21840743907257193  0.041240667771484274  0.7133985651183671  1.0000
  C   C192      1.0  0.2088923019567437  0.08312400037846902  0.7072868008183023  1.0000
  C   C193      1.0  0.22817636102322594  0.10901525994453432  0.6918670637982841  1.0000
  C   C194      1.0  0.2550507694075296  0.09059510719639867  0.6799181304888082  1.0000
  C   C195      1.0  0.2635156123236965  0.04764644905378204  0.684737681656385  1.0000
  C   C196      1.0  0.250457709674404  0.9408785944026009  0.7631729997153931  1.0000
  C   C197      1.0  0.2529046140048918  0.94301213095174  0.7909293339846335  1.0000
  C   C198      1.0  0.25958016251674193  0.9830899502908752  0.8038413698944169  1.0000
  C   C199      1.0  0.26690887680953335  0.01851805802967532  0.7879188812025402  1.0000
  C   C200      1.0  0.26643455888032197  0.015696388065935096  0.7606168406126901  1.0000
  C   C201      1.0  0.256631713438593  0.9775589551524463  0.747355503340531  1.0000
  C   C202      1.0  0.2552891535972138  0.990587955497343  0.8354965534743364  1.0000
  C   C203      1.0  0.157962057784666  0.045936035566681445  0.8347777599193899  1.0000
  C   C204      1.0  0.16326413659324743  0.0007411054095056713  0.8339600312964872  1.0000
  C   C205      1.0  0.19403626515708794  0.9843434320001406  0.8338651343945701  1.0000
  C   C206      1.0  0.2204446235200958  0.011928739454726056  0.8351189849496875  1.0000
  C   C207      1.0  0.2139751189742868  0.0570147001367259  0.8343254853230191  1.0000
  C   C208      1.0  0.1836355200710193  0.07401985725663682  0.8348141034137412  1.0000
  C   C209      1.0  0.2783891043071506  0.024098718997439112  0.8508274508414959  1.0000
  C   C210      1.0  0.30848822938644344  0.0337816872312022  0.840623005260879  1.0000
  C   C211      1.0  0.3270203980999446  0.06679714857207383  0.8521095685588865  1.0000
  C   C212      1.0  0.31883296314474724  0.08558334150219746  0.8767141142346676  1.0000
  C   C213      1.0  0.2904039860142199  0.07446475245265793  0.8882208683628704  1.0000
  C   C214      1.0  0.2702482247663347  0.044269628388256696  0.8755632369135455  1.0000
  C   C215      1.0  0.24067022967808152  0.9313929303632554  0.8704953385345687  1.0000
  C   C216      1.0  0.24960343023244266  0.9011127681320448  0.8893959746802267  1.0000
  C   C217      1.0  0.2811808815933308  0.8933517589946908  0.8938561290703302  1.0000
  C   C218      1.0  0.3030474667828358  0.9060397611721615  0.8751311531473699  1.0000
  C   C219      1.0  0.2939084976173765  0.9312061619285386  0.8539671249368381  1.0000
  C   C220      1.0  0.2628251020515242  0.9476679295793269  0.8524891561665549  1.0000
  H   H117      1.0  0.2600706933509623  0.9439622438107386  0.663757390000629  1.0000
  H   H118      1.0  0.1938119518642573  0.9452661711021364  0.7299308168821368  1.0000
  H   H119      1.0  0.15793391556571879  0.9003054088106972  0.7027277113602427  1.0000
  H   H120      1.0  0.22328160041628045  0.905657888834758  0.6362554601918472  1.0000
  H   H121      1.0  0.20372363109620664  0.02281412010525025  0.7272070738888142  1.0000
  H   H122      1.0  0.1870779816362538  0.09654335804483559  0.716005201296558  1.0000
  H   H123      1.0  0.2702879978541756  0.10900371902769991  0.6666709267977858  1.0000
  H   H124      1.0  0.28439722675395473  0.032976232489206316  0.6751026174872706  1.0000
  H   H125      1.0  0.2432876075954296  0.9098196418770963  0.7537216721010543  1.0000
  H   H126      1.0  0.24756499750620845  0.9142479005430824  0.8026864544072558  1.0000
  H   H127      1.0  0.27250441597906566  0.05001098082885586  0.797465105718796  1.0000
  H   H128      1.0  0.27450890595181365  0.04451844844686301  0.7502589447225901  1.0000
  H   H129      1.0  0.14312680906225927  0.9785660678428959  0.8337480275794383  1.0000
  H   H130      1.0  0.19598817036578836  0.9485718998108763  0.832411394620521  1.0000
  H   H131      1.0  0.2337859995934973  0.0793480705040651  0.83448701196458  1.0000
  H   H132      1.0  0.1807824637049282  0.10958108105580823  0.8352482062629363  1.0000
  H   H133      1.0  0.3170428859274203  0.018750643186937532  0.8219121629190552  1.0000
  H   H134      1.0  0.3479456526440648  0.07737622911780176  0.8417940734121963  1.0000
  H   H135      1.0  0.2817006855963591  0.09114913312310814  0.9063926155384843  1.0000
  H   H136      1.0  0.24851372716011913  0.03612297053775578  0.8858746938941967  1.0000
  H   H137      1.0  0.21740709781067968  0.9463448791807174  0.8724740398936911  1.0000
  H   H138      1.0  0.23311697248115779  0.8933720901750453  0.9052397191343425  1.0000
  H   H139      1.0  0.32785076778112493  0.899450203751141  0.878353609646512  1.0000
  H   H140      1.0  0.3123905422084294  0.9434447005225483  0.8409642302911766  1.0000
  C   C221      1.0  0.2975402843214959  0.9112017926864017  0.03480858743979426  1.0000
  C   C222      1.0  0.3165789757395228  0.9374781074031407  0.050931369167206704  1.0000
  C   C223      1.0  0.34861548200879566  0.9397391100354497  0.0461192886068022  1.0000
  C   C224      1.0  0.36182047493942554  0.9203079439018828  0.023101742184357937  1.0000
  C   C225      1.0  0.34190205928318446  0.8941518148891521  0.006786986043450226  1.0000
  C   C226      1.0  0.31046554566839546  0.8894274191084783  0.012734215268254944  1.0000
  H   H141      1.0  0.30584171233133095  0.9549809521347682  0.06810023780702866  1.0000
  H   H142      1.0  0.3632520468339952  0.9575039904066178  0.06065224436465038  1.0000
  H   H143      1.0  0.3515513118853181  0.8752333079439374  0.9895606641952299  1.0000
  H   H144      1.0  0.2966235481260624  0.867404041426754  0.99987615934192  1.0000
  C   C227      1.0  0.41994476271120257  0.882769391020732  0.05891381388484999  1.0000
  C   C228      1.0  0.4116735128484133  0.8822334770548286  0.03161742672745451  1.0000
  C   C229      1.0  0.40979912585649947  0.8421041855440445  0.01769851449750051  1.0000
  C   C230      1.0  0.40858619113315625  0.8040477194697455  0.03144560276249398  1.0000
  C   C231      1.0  0.4122386957976846  0.8047393150985945  0.05887605703238509  1.0000
  C   C232      1.0  0.4207188390912  0.8435727895328408  0.0722645965347735  1.0000
  C   C233      1.0  0.39925781670577987  0.9250641413484386  0.017195237864056787  1.0000
  C   C234      1.0  0.41444405508279236  0.9725545905218562  0.0257840939757805  1.0000
  C   C235      1.0  0.39744409465831854  0.012354141065260782  0.023861321216298595  1.0000
  C   C236      1.0  0.4119165323321198  0.05317936980447543  0.024098967287695235  1.0000
  C   C237      1.0  0.4446137789249154  0.05544271101248075  0.02476647613394612  1.0000
  C   C238      1.0  0.4615886558253789  0.017423117552108507  0.02916666375837005  1.0000
  C   C239      1.0  0.44630338117262036  0.9768834103484021  0.03126327956583199  1.0000
  C   C240      1.0  0.4376472342393667  0.9143653325559536  0.9776339407989687  1.0000
  C   C241      1.0  0.44866721452751346  0.9238619499569284  0.9526599029306166  1.0000
  C   C242      1.0  0.4317722005172551  0.9510043978147942  0.9359842962724617  1.0000
  C   C243      1.0  0.400285624210057  0.9594947244864316  0.9430975257502048  1.0000
  C   C244      1.0  0.38836783537315683  0.9469559166304438  0.9675082394561128  1.0000
  C   C245      1.0  0.4076467321575431  0.9266802510581742  0.9859949635827705  1.0000
  C   C246      1.0  0.44830752919280215  0.9737752850423651  0.9102308923585778  1.0000
  C   C247      1.0  0.025067537430000873  0.06682924313117167  0.9082562291654944  1.0000
  C   C248      1.0  0.010389789787650285  0.04899507405265492  0.9303046157385726  1.0000
  C   C249      1.0  0.4890448420803169  0.0124915481863348  0.9426694801500681  1.0000
  C   C250      1.0  0.48255306645379775  0.9942871930324169  0.9171442326173891  1.0000
  C   C251      1.0  0.9945682100697174  0.018758894588199054  0.879007792544834  1.0000
  C   C252      1.0  0.016849416635745674  0.051856726755395904  0.8824927298365128  1.0000
  C   C253      1.0  0.43127157701960345  0.01799626587201821  0.9008805188952146  1.0000
  C   C254      1.0  0.4201928654342007  0.04962950941251233  0.9196458764785652  1.0000
  C   C255      1.0  0.40331958615770774  0.08612850447587951  0.9122701662082856  1.0000
  C   C256      1.0  0.39592339310571206  0.09196218729289476  0.885856522147021  1.0000
  C   C257      1.0  0.4072458733204478  0.06146071640868419  0.866562164812558  1.0000
  C   C258      1.0  0.42589388803963085  0.026438557893753392  0.8741458406338475  1.0000
  C   C259      1.0  0.4145048539705292  0.9209756373637982  0.8798255211677366  1.0000
  C   C260      1.0  0.4105430366139914  0.8834511814662496  0.8643997268986601  1.0000
  C   C261      1.0  0.43575589542536  0.8559215555662122  0.8592470270328637  1.0000
  C   C262      1.0  0.4655770743498877  0.8679237580681638  0.8678664924431632  1.0000
  C   C263      1.0  0.4698383463818695  0.9062409836050628  0.882737038881874  1.0000
  C   C264      1.0  0.4446205556938755  0.9340901848307956  0.8889537954989534  1.0000
  H   H145      1.0  0.4225082845930201  0.9133295963987474  0.0706985957448395  1.0000
  H   H146      1.0  0.40266350147292873  0.8419316456801439  0.9968172485673584  1.0000
  H   H147      1.0  0.40134530805423285  0.7750271091054481  0.020086544557168715  1.0000
  H   H148      1.0  0.42291894772730404  0.8443479094781821  0.09415892707346288  1.0000
  H   H149      1.0  0.3720234304406719  0.011911594481281984  0.020572840702418337  1.0000
  H   H150      1.0  0.39772746800643033  0.0827438319025283  0.021077005732390647  1.0000
  H   H151      1.0  0.48719115736321833  0.01993402711530011  0.031985909378515566  1.0000
  H   H152      1.0  0.4605035024218127  0.9472296438634012  0.03350688461711445  1.0000
  H   H153      1.0  0.4538255486201794  0.8990928537510221  0.9911476634485669  1.0000
  H   H154      1.0  0.4728180703021044  0.9143777483104466  0.9481391760499278  1.0000
  H   H155      1.0  0.38476564809539227  0.9783221304995071  0.9300481921950944  1.0000
  H   H156      1.0  0.36468878260365295  0.9584367190049612  0.973617984673158  1.0000
  H   H157      1.0  0.01587144590846549  0.06129723229976237  0.9500855720807381  1.0000
  H   H158      1.0  0.4707510790055552  0.012587331872268237  0.958127579747457  1.0000
  H   H159      1.0  0.9890304681880788  0.007796854147845478  0.8585181380628197  1.0000
  H   H160      1.0  0.02821671575977479  0.0654405606913525  0.8650074708875333  1.0000
  H   H161      1.0  0.42396812099370645  0.04612448359647685  0.9409734504136774  1.0000
  H   H162      1.0  0.39459727623428664  0.10834340382304454  0.9282552464737672  1.0000
  H   H163      1.0  0.4019359399962748  0.06344656182995753  0.8455293769982947  1.0000
  H   H164      1.0  0.43584201996086464  0.004378612536677151  0.8590390614818539  1.0000
  H   H165      1.0  0.3934723508455754  0.9399571741170311  0.8851882056675623  1.0000
  H   H166      1.0  0.38632854094740054  0.8746770590767484  0.8588432104289612  1.0000
  H   H167      1.0  0.48521484358785816  0.8451131261167014  0.8636587234304989  1.0000
  H   H168      1.0  0.4935375817621506  0.9143514323198758  0.8893979937632461  1.0000
  C   C265      1.0  0.09984381732284513  0.0519334503116192  0.9180245528138965  1.0000
  C   C266      1.0  0.09278306513343866  0.00909542166124222  0.9108467126795291  1.0000
  C   C267      1.0  0.1107599439048507  0.975068580188538  0.9202798685466922  1.0000
  C   C268      1.0  0.13693201118006676  0.9824585277167938  0.9366364600877642  1.0000
  C   C269      1.0  0.1436754515605986  0.02595090935243867  0.9444361777921416  1.0000
  C   C270      1.0  0.12535935641695986  0.060342801963702085  0.9350232127551736  1.0000
  H   H169      1.0  0.07296527201734893  0.0014202516945558408  0.8977509402149699  1.0000
  H   H170      1.0  0.10481810753171734  0.9411489795288702  0.9140610928465932  1.0000
  H   H171      1.0  0.16395552927044155  0.033782482203390994  0.9570312176678615  1.0000
  H   H172      1.0  0.13080425931242018  0.09367497803228576  0.9418315606969704  1.0000
  C   C271      1.0  0.21245752139157295  0.976587669416262  0.9379629976315841  1.0000
  C   C272      1.0  0.19340832155801246  0.9492104578406223  0.9529203646401339  1.0000
  C   C273      1.0  0.2086701857541329  0.9203042602207436  0.9702400587815133  1.0000
  C   C274      1.0  0.24098718111868853  0.9138948995472849  0.9691154295396448  1.0000
  C   C275      1.0  0.2589987486272897  0.9375838071027777  0.9517371819906993  1.0000
  C   C276      1.0  0.24487948026399103  0.9721104986642681  0.9384677683864623  1.0000
  C   C277      1.0  0.15693311952755498  0.9411147464815746  0.9454578338000149  1.0000
  C   C278      1.0  0.16095580069395754  0.9028608995372435  0.9227572834116342  1.0000
  C   C279      1.0  0.16708240796486934  0.8590782585856381  0.9282330365605526  1.0000
  C   C280      1.0  0.1724929950650848  0.8279156117478216  0.9080825880258163  1.0000
  C   C281      1.0  0.1718643725030284  0.8400335795101946  0.8818082606928981  1.0000
  C   C282      1.0  0.16653209201859603  0.883027378005573  0.875652076566404  1.0000
  C   C283      1.0  0.16170461638016478  0.9137405062228507  0.8959054983351354  1.0000
  C   C284      1.0  0.14206779710206238  0.9490304007797321  0.996110569510529  1.0000
  C   C285      1.0  0.13152313975735277  0.9319860381331706  0.019465171757913697  1.0000
  C   C286      1.0  0.11552544278231018  0.8917788556656437  0.019800501065794358  1.0000
  C   C287      1.0  0.1068545741282718  0.8727904910427238  0.9952181348159044  1.0000
  C   C288      1.0  0.1173488260705989  0.8903503137895126  0.9716170734008209  1.0000
  C   C289      1.0  0.13765415045302273  0.9269298019060068  0.9717927336235186  1.0000
  C   C290      1.0  0.11170584547372306  0.8655507813956083  0.04720252664677073  1.0000
  C   C291      1.0  0.21570360097542418  0.858287156081593  0.05408638829349718  1.0000
  C   C292      1.0  0.1991819976828175  0.8865852477564514  0.07107616426948836  1.0000
  C   C293      1.0  0.16661355969093547  0.8850669353965971  0.07130351301748548  1.0000
  C   C294      1.0  0.14921256596020482  0.8575352357548678  0.05383117619983078  1.0000
  C   C295      1.0  0.1668864373160911  0.8271235802715458  0.038840898138062976  1.0000
  C   C296      1.0  0.19966225210640082  0.8266960883330392  0.039265713205368445  1.0000
  C   C297      1.0  0.089659641204419  0.8216885826260242  0.045951704716182644  1.0000
  C   C298      1.0  0.05908779199398818  0.8196209896309998  0.03413926141882581  1.0000
  C   C299      1.0  0.04307195691026574  0.7793356139505003  0.03048149062067669  1.0000
  C   C300      1.0  0.056761057371914246  0.7410290216725727  0.03934546698463919  1.0000
  C   C301      1.0  0.08480126001506735  0.7429654529351184  0.05354789885219315  1.0000
  C   C302      1.0  0.09967556005990157  0.7830400389493936  0.058208144369530306  1.0000
  C   C303      1.0  0.09829049673969803  0.8908180722099517  0.09563285767770711  1.0000
  C   C304      1.0  0.0902364947087226  0.9242617261440067  0.1141637997224923  1.0000
  C   C305      1.0  0.07049387082922  0.9589252857828292  0.1061143214486012  1.0000
  C   C306      1.0  0.05866021041512881  0.9579763154011818  0.08023815728713093  1.0000
  C   C307      1.0  0.06953893503730336  0.9270479060969734  0.061725588897823314  1.0000
  C   C308      1.0  0.09250338948603509  0.8962105738648409  0.06842147391543311  1.0000
  H   H173      1.0  0.20259399831804387  0.996999457835962  0.9223918293851024  1.0000
  H   H174      1.0  0.19560981910025807  0.8960996402590217  0.9816902785851697  1.0000
  H   H175      1.0  0.2510196935142226  0.8851369394560805  0.9786455013917446  1.0000
  H   H176      1.0  0.2585071714854778  0.9881747833666021  0.9229914970418978  1.0000
  H   H177      1.0  0.1686098430636165  0.8483024707963034  0.9489326756765962  1.0000
  H   H178      1.0  0.17552924676015746  0.7934067437326503  0.9129162727745296  1.0000
  H   H179      1.0  0.16657337008776363  0.8930398740729504  0.8550836778466285  1.0000
  H   H180      1.0  0.1583549352897488  0.9476234715499727  0.8897755622878951  1.0000
  H   H181      1.0  0.15610565261835457  0.9792776785945714  0.9969828133749584  1.0000
  H   H182      1.0  0.13703456078954096  0.9496636586468145  0.03834642470658433  1.0000
  H   H183      1.0  0.09364667766637551  0.8421121743365257  0.9933787501851283  1.0000
  H   H184      1.0  0.1111988431666836  0.8739722308021605  0.9527891242438654  1.0000
  H   H185      1.0  0.21085266550483753  0.9105329545263459  0.08366171445501659  1.0000
  H   H186      1.0  0.15524064137848848  0.9110189181382309  0.08334976612850188  1.0000
  H   H187      1.0  0.15358792398863624  0.8038892978791966  0.02591371910563321  1.0000
  H   H188      1.0  0.21329366370914113  0.8028455131554435  0.027532014145772606  1.0000
  H   H189      1.0  0.04883011840462896  0.8487800148176099  0.02494960696381592  1.0000
  H   H190      1.0  0.020124171768785806  0.7782996626789114  0.020264728633640705  1.0000
  H   H191      1.0  0.09643890475567261  0.7136204458770862  0.06058278790877914  1.0000
  H   H192      1.0  0.12193156343256134  0.7826631150033021  0.06898419235297129  1.0000
  H   H193      1.0  0.11452205147469678  0.8651170725255652  0.10228977439304035  1.0000
  H   H194      1.0  0.09987648172139442  0.9222115874112562  0.13420461204926906  1.0000
  H   H195      1.0  0.04363457579092014  0.9839566962530385  0.07304194349728588  1.0000
  H   H196      1.0  0.06287209108187218  0.9286814089040071  0.04081071553189953  1.0000
  C   C309      1.0  0.09936517412239931  0.025611086814215592  0.7965767091902104  1.0000
  C   C310      1.0  0.07640867814744833  0.0016566557398762782  0.8092000162282035  1.0000
  C   C311      1.0  0.06917352693519328  0.9600495299739645  0.7998920435082502  1.0000
  C   C312      1.0  0.08405869774375466  0.942437011795802  0.7766847032819717  1.0000
  C   C313      1.0  0.10721664945947966  0.9677016774654938  0.7643723350289836  1.0000
  C   C314      1.0  0.11482422196276786  0.00867422632841075  0.7741446968434248  1.0000
  H   H197      1.0  0.06489135614001103  0.015658813859966703  0.8270386147055979  1.0000
  H   H198      1.0  0.051602399921818476  0.9408288017047323  0.8104740576135161  1.0000
  H   H199      1.0  0.12077172364259754  0.9542669119249177  0.7475776024726772  1.0000
  H   H200      1.0  0.13379677278717872  0.026194750279838624  0.7643723350289836  1.0000
  C   C315      1.0  0.01662420044243578  0.9014150715424928  0.7717056445558536  1.0000
  C   C316      1.0  0.043482782449776915  0.8753516625603294  0.7747383072511617  1.0000
  C   C317      1.0  0.037757955342544336  0.8306081437187416  0.7794044081092554  1.0000
  C   C318      1.0  0.007966474368517242  0.8148172915109354  0.7838827342465344  1.0000
  C   C319      1.0  0.45918466124650487  0.8171646083061361  0.8023068667995873  1.0000
  C   C320      1.0  0.46429679299252735  0.8578529769514004  0.7912947880111654  1.0000
  C   C321      1.0  0.07872034886134181  0.8920897315645645  0.7687032681058382  1.0000
  C   C322      1.0  0.10657472014271548  0.8692278371471724  0.7851325466356126  1.0000
  C   C323      1.0  0.13727036370495493  0.865335042825611  0.77441323488502  1.0000
  C   C324      1.0  0.1619492628199115  0.847265508753083  0.7890213005311941  1.0000
  C   C325      1.0  0.15661214701605156  0.8323042566301099  0.8143830023392925  1.0000
  C   C326      1.0  0.1263344760214114  0.8354871226111923  0.8252396117352121  1.0000
  C   C327      1.0  0.10219749576424149  0.8550819931022189  0.8113139961496333  1.0000
  C   C328      1.0  0.06878101726035177  0.9063742709866098  0.7180949522217535  1.0000
  C   C329      1.0  0.059607420564590216  0.8888329301927701  0.6933934905610357  1.0000
  C   C330      1.0  0.059428352210718925  0.8438381176809359  0.68753411163841  1.0000
  C   C331      1.0  0.07657192072962668  0.8182430230762249  0.7053525192856092  1.0000
  C   C332      1.0  0.08583386492152846  0.8354571343315036  0.7298702443915513  1.0000
  C   C333      1.0  0.07976979843428073  0.8788030097368938  0.7375952560242067  1.0000
  C   C334      1.0  0.036498935177769705  0.8221192973779757  0.6649567253142195  1.0000
  C   C335      1.0  0.4253165724932572  0.8448079926886233  0.6800009128926083  1.0000
  C   C336      1.0  0.44302395291490615  0.8661516798614335  0.6610962385809114  1.0000
  C   C337      1.0  0.474177221343181  0.8545496487119505  0.6566825231002567  1.0000
  C   C338      1.0  0.4874805454080035  0.817948792308881  0.6689605669419132  1.0000
  C   C339      1.0  0.4689409111834936  0.7966035888736921  0.6879722526536444  1.0000
  C   C340      1.0  0.4386315402387315  0.810879706435954  0.6943384214141678  1.0000
  C   C341      1.0  0.04361170157791667  0.7699647261583222  0.6602462046296965  1.0000
  C   C342      1.0  0.07440700424233143  0.7564142213934126  0.6524061052649288  1.0000
  C   C343      1.0  0.08335203888962268  0.7128797660178758  0.6533611315331583  1.0000
  C   C344      1.0  0.06133656971987438  0.6808977393332936  0.6590105258217548  1.0000
  C   C345      1.0  0.03035884621783251  0.6932238107576184  0.6643449431593073  1.0000
  C   C346      1.0  0.021530856469008507  0.737248804447784  0.6649769161444147  1.0000
  C   C347      1.0  0.021148084849134673  0.8239753137339961  0.6145705085622812  1.0000
  C   C348      1.0  0.02692298386375643  0.8336515344456422  0.5884274216256314  1.0000
  C   C349      1.0  0.051216347364300745  0.8612163898791892  0.5819017453065665  1.0000
  C   C350      1.0  0.07064634142966784  0.8782016029243553  0.6019108580299369  1.0000
  C   C351      1.0  0.06570756904391833  0.8671722877930718  0.628267967766655  1.0000
  C   C352      1.0  0.04100468318708158  0.8390363345056654  0.635128811866959  1.0000
  H   H201      1.0  0.018438862184959305  0.9352061184547011  0.7658038648898181  1.0000
  H   H202      1.0  0.05735257515233722  0.8077187678032078  0.7805552854303776  1.0000
  H   H203      1.0  0.4807760004797067  0.755619621335402  0.8111968893345015  1.0000
  H   H204      1.0  0.44503513335220235  0.8817252156070606  0.7900954526975748  1.0000
  H   H205      1.0  0.14170731260008934  0.8771910277340058  0.7545212289767814  1.0000
  H   H206      1.0  0.1859004524385767  0.8456960024068024  0.7811731248343484  1.0000
  H   H207      1.0  0.12186458216101582  0.8240370408987931  0.8454344800963777  1.0000
  H   H208      1.0  0.07879288488183686  0.8570883559078076  0.8205977398733525  1.0000
  H   H209      1.0  0.06331899143620028  0.9406626465294045  0.7231466979365743  1.0000
  H   H210      1.0  0.04781444716860471  0.9102748099894503  0.6797323748510131  1.0000
  H   H211      1.0  0.07875976631186728  0.7825294708419892  0.7034465049151892  1.0000
  H   H212      1.0  0.09505597577703116  0.8127562451751412  0.7444641764565888  1.0000
  H   H213      1.0  0.432819543059053  0.8943987871726079  0.6510109188984456  1.0000
  H   H214      1.0  0.9942500260649673  0.888995053633186  0.6474007984595571  1.0000
  H   H215      1.0  0.4795758375761643  0.770017615942879  0.6991519153326858  1.0000
  H   H216      1.0  0.4250768320198727  0.7952750848004657  0.709715757690776  1.0000
  H   H217      1.0  0.09219834883333886  0.7815582044709577  0.6483901491391183  1.0000
  H   H218      1.0  0.10780744174356353  0.7035502737421836  0.650271934513304  1.0000
  H   H219      1.0  0.012587167828066747  0.6688122352223004  0.6695259101873766  1.0000
  H   H220      1.0  0.9972095800245727  0.7444061107068718  0.6705738142745037  1.0000
  H   H221      1.0  0.001416153371919489  0.802320886521939  0.6188630790617652  1.0000
  H   H222      1.0  0.010711631201876914  0.8197906222359462  0.5734034248774378  1.0000
  H   H223      1.0  0.08988033360703748  0.8989349255266317  0.5954901740278866  1.0000
  H   H224      1.0  0.08123316308067513  0.8823494877892415  0.6429325677373755  1.0000
  C   C353      1.0  0.0326017373979318  0.3576285139947034  0.500999107797714  1.0000
  C   C354      1.0  0.037436270816250596  0.3986126046343172  0.512885449533585  1.0000
  C   C355      1.0  0.06297836072972317  0.424536985496702  0.5059054795351297  1.0000
  C   C356      1.0  0.0836102685606387  0.41066612449104956  0.48554100820032503  1.0000
  C   C357      1.0  0.07925058019895993  0.3682629733550842  0.47429269669862006  1.0000
  C   C358      1.0  0.05403880922385216  0.34252460779961447  0.48193694501049494  1.0000
  H   H225      1.0  0.021647197717452372  0.4099142309489932  0.5289815793651399  1.0000
  H   H226      1.0  0.06602446047369795  0.4561222022047571  0.5165117226366296  1.0000
  H   H227      1.0  0.09508265428214391  0.3564162693111628  0.45859028805587015  1.0000
  H   H228      1.0  0.050897842529292886  0.3099972398007952  0.4725078273093709  1.0000
  C   C359      1.0  0.1422043959404367  0.4394911221771887  0.5249918713185828  1.0000
  C   C360      1.0  0.1389801483163392  0.42089703431533243  0.4990163682725525  1.0000
  C   C361      1.0  0.1575987822462186  0.38376648074996683  0.4925896270214437  1.0000
  C   C362      1.0  0.17938280034001236  0.3676544110729585  0.5103959201705258  1.0000
  C   C363      1.0  0.1816317256051171  0.38607601456894536  0.5361634576655463  1.0000
  C   C364      1.0  0.16316389624908073  0.42210890937945594  0.5433594695470895  1.0000
  C   C365      1.0  0.11368304112144317  0.4397289072085117  0.4785004657112844  1.0000
  C   C366      1.0  0.10815921037991044  0.4923981247271844  0.4814180406744802  1.0000
  C   C367      1.0  0.1339434714805358  0.5210704291602619  0.48591050039289585  1.0000
  C   C368      1.0  0.13011197732182825  0.5663537780100572  0.48732991575561324  1.0000
  C   C369      1.0  0.10039334266396008  0.5840899312326732  0.48302119259197324  1.0000
  C   C370      1.0  0.0749314711505841  0.5570518265502745  0.47746467612227445  1.0000
  C   C371      1.0  0.07865959451976996  0.5120926798288402  0.47623505456339127  1.0000
  C   C372      1.0  0.10146061548696615  0.4397171425409432  0.42783157733661437  1.0000
  C   C373      1.0  0.10920867081777323  0.452722818744528  0.40236286412848177  1.0000
  C   C374      1.0  0.14033277697120683  0.46316028681916793  0.39504974543180693  1.0000
  C   C375      1.0  0.16402279009465567  0.45388896075360696  0.41405335481146005  1.0000
  C   C376      1.0  0.1558919297964065  0.4421565989741955  0.4396512893328414  1.0000
  C   C377      1.0  0.12435799483605506  0.43753767078194916  0.44766502983728723  1.0000
  C   C378      1.0  0.14504192565607132  0.4894779155913435  0.36737013631730797  1.0000
  C   C379      1.0  0.2489178475732205  0.5023774470908066  0.3575069157669886  1.0000
  C   C380      1.0  0.23283395058794745  0.5232879290236695  0.3785800852416422  1.0000
  C   C381      1.0  0.2001718297600638  0.5228213267071729  0.3792968597135692  1.0000
  C   C382      1.0  0.18246626227095294  0.4970805612291379  0.36077783025859916  1.0000
  C   C383      1.0  0.199071158539934  0.4799260964962407  0.3387556917647746  1.0000
  C   C384      1.0  0.2315568864565355  0.4819869916190805  0.3371808070095547  1.0000
  C   C385      1.0  0.13002694853944663  0.5387657933999085  0.3683897732421618  1.0000
  C   C386      1.0  0.12590363593638584  0.5614264263766345  0.34463122335155644  1.0000
  C   C387      1.0  0.10238756549037523  0.5934920662690751  0.3425333960942828  1.0000
  C   C388      1.0  0.08612482167714103  0.6083658634104148  0.3650724198411025  1.0000
  C   C389      1.0  0.0942575547710009  0.5909998844582367  0.389882911984874  1.0000
  C   C390      1.0  0.1167917036578814  0.5577919151939433  0.3915385600608744  1.0000
  C   C391      1.0  0.09572856872509053  0.46688987100526863  0.33618943724697403  1.0000
  C   C392      1.0  0.08196925018270763  0.440834812501424  0.3165780838784476  1.0000
  C   C393      1.0  0.09530854889698159  0.401628694855395  0.3084371411437726  1.0000
  C   C394      1.0  0.12445609372003165  0.3896940394213147  0.31891618201504324  1.0000
  C   C395      1.0  0.13842369771121327  0.41640144791453926  0.3382266920136623  1.0000
  C   C396      1.0  0.1258429068934396  0.45705466381876897  0.3462464897671666  1.0000
  H   H229      1.0  0.12737838710722188  0.4674125169719346  0.5316084063735258  1.0000
  H   H230      1.0  0.1547954082574284  0.36669883633027894  0.47335382309454666  1.0000
  H   H231      1.0  0.1944496339755456  0.34027230170653244  0.5038540911873048  1.0000
  H   H232      1.0  0.1654860092191582  0.43873556168291167  0.5630152427420451  1.0000
  H   H233      1.0  0.15779991163512536  0.507285907699419  0.4878811254199402  1.0000
  H   H234      1.0  0.1500438060494345  0.5881998945836067  0.49196976853445334  1.0000
  H   H235      1.0  0.05164323315026774  0.570151120480392  0.47302673164538567  1.0000
  H   H236      1.0  0.058719873566815885  0.49134126750091767  0.4704867252068387  1.0000
  H   H237      1.0  0.07697292263085488  0.43512208508063654  0.4329459146250399  1.0000
  H   H238      1.0  0.08923545472396992  0.45650245912075454  0.38893798113174216  1.0000
  H   H239      1.0  0.18871417457161868  0.4617381491383227  0.41081272656514217  1.0000
  H   H240      1.0  0.1747680468456831  0.44196013524762545  0.4546167326734692  1.0000
  H   H241      1.0  0.24557630833782296  0.5409572101331493  0.39451266934861656  1.0000
  H   H242      1.0  0.1882398884539396  0.5388391753622096  0.39641868371903655  1.0000
  H   H243      1.0  0.18641700881186804  0.4638402436690249  0.3224314055520148  1.0000
  H   H244      1.0  0.24359304756383376  0.4684474849682711  0.319513830588819  1.0000
  H   H245      1.0  0.13615836933460185  0.5480348529012745  0.3263120831155181  1.0000
  H   H246      1.0  0.09584475513696321  0.6059247056827356  0.3229079091446198  1.0000
  H   H247      1.0  0.08226905504610549  0.6024155592283869  0.40815561331146355  1.0000
  H   H248      1.0  0.12075130050167344  0.544739324324317  0.4114487377162887  1.0000
  H   H249      1.0  0.0839533974480006  0.49746872317503427  0.34128964095426295  1.0000
  H   H250      1.0  0.06162657638157546  0.4539146130378936  0.30597587894298667  1.0000
  H   H251      1.0  0.1367817177233404  0.3596498666411968  0.31195640284678317  1.0000
  H   H252      1.0  0.16148491007239665  0.4065052371802007  0.3459678563104738  1.0000
  C   C397      1.0  0.10082359589909842  0.4204095022210383  0.1689457621162116  1.0000
  C   C398      1.0  0.10498608478210437  0.4541500869732147  0.18806728594420422  1.0000
  C   C399      1.0  0.08009104032310738  0.4841099338337749  0.19361067837427623  1.0000
  C   C400      1.0  0.050541917830438515  0.47882032707298244  0.1808734950539826  1.0000
  C   C401      1.0  0.04868763618680534  0.44746835511295513  0.16002424188619296  1.0000
  C   C402      1.0  0.07259831831404295  0.4175632905677095  0.15493272023588792  1.0000
  H   H253      1.0  0.12646095106518498  0.4548438232963032  0.20021449320619628  1.0000
  H   H254      1.0  0.08321883329411571  0.5103162333826131  0.20875501247043285  1.0000
  H   H255      1.0  0.027266808946967706  0.44301559425619186  0.14827762069527226  1.0000
  H   H256      1.0  0.06873758030457136  0.39195271296412243  0.13996808452846793  1.0000
  C   C403      1.0  0.48114077912279263  0.44008820072388755  0.184932053831505  1.0000
  C   C404      1.0  0.4919027067513361  0.4835605118996912  0.1860068117227916  1.0000
  C   C405      1.0  0.4709375639054088  0.5147637531321058  0.1765581089163782  1.0000
  C   C406      1.0  0.4431045620503698  0.5028907015577806  0.1636339585084777  1.0000
  C   C407      1.0  0.43384523186203106  0.4595275706610437  0.16206775581024174  1.0000
  C   C408      1.0  0.4523981942799988  0.4284849959095372  0.17376612091699611  1.0000
  C   C409      1.0  0.019954553846189365  0.5074385036946993  0.18999086633689394  1.0000
  C   C410      1.0  0.028515377300211173  0.5531475966201432  0.17693870606555634  1.0000
  C   C411      1.0  0.03999284347589519  0.5882324495931309  0.19226314236705347  1.0000
  C   C412      1.0  0.04932827096153223  0.6261360975742891  0.18024515641831027  1.0000
  C   C413      1.0  0.0476782534585334  0.6298029033166145  0.1527395922600933  1.0000
  C   C414      1.0  0.03551749529136928  0.5957318294388652  0.13725019687590195  1.0000
  C   C415      1.0  0.02708762529647727  0.5570458132118662  0.14906990887212904  1.0000
  C   C416      1.0  0.9880807726472755  0.5354358151114115  0.2318331313834625  1.0000
  C   C417      1.0  0.4787938764010864  0.5148397570331961  0.2641505741937821  1.0000
  C   C418      1.0  0.4826230446480193  0.47529750555268885  0.2774179687149997  1.0000
  C   C419      1.0  0.013352344679043579  0.47192402334057676  0.26375483392195753  1.0000
  C   C420      1.0  0.025820151747463497  0.4782998527359381  0.238932227280069  1.0000
  C   C421      1.0  0.012938173879045759  0.5093623568767245  0.22182453685573825  1.0000
  C   C422      1.0  0.46074453043481983  0.46333451189503794  0.3022163463606541  1.0000
  C   C423      1.0  0.357444021227333  0.45212590720155565  0.29472352927524265  1.0000
  C   C424      1.0  0.3760400579647295  0.45379050815841676  0.2714071585659105  1.0000
  C   C425      1.0  0.40846270686534764  0.4611945886166789  0.27356353923075  1.0000
  C   C426      1.0  0.42325106402864754  0.4681443492193695  0.2981943329857849  1.0000
  C   C427      1.0  0.40315334196984226  0.4708569281419534  0.3207878719741315  1.0000
  C   C428      1.0  0.3707227355665742  0.4633904206211482  0.31919885363777506  1.0000
  C   C429      1.0  0.4750396670703838  0.49720493803264765  0.32405272921668343  1.0000
  C   C430      1.0  0.4604691829361806  0.53764369445539  0.32973846699963105  1.0000
  C   C431      1.0  0.473264734601642  0.5666340254298579  0.34850988183204024  1.0000
  C   C432      1.0  0.009545238055258452  0.578412915151753  0.35336173832792916  1.0000
  C   C433      1.0  0.02174051005322394  0.5361292393500368  0.3514779338707239  1.0000
  C   C434      1.0  0.009689307536888628  0.5058071362856029  0.3328115113553293  1.0000
  C   C435      1.0  0.46015481993341895  0.3987399797174323  0.3359128228733008  1.0000
  C   C436      1.0  0.460231407512369  0.3540789952271556  0.3421659229847315  1.0000
  C   C437      1.0  0.46064674131497785  0.3223339928353738  0.3215187800271951  1.0000
  C   C438      1.0  0.4582894821150827  0.3348234778063939  0.2949254375771939  1.0000
  C   C439      1.0  0.4581699565974539  0.3791457962634588  0.2891649937225243  1.0000
  C   C440      1.0  0.46078291720231573  0.41194934294045943  0.30950119789505576  1.0000
  H   H257      1.0  0.49635282903475164  0.4149773591192243  0.19290076878461557  1.0000
  H   H258      1.0  0.4771878639221912  0.5493735164477299  0.17785678311452874  1.0000
  H   H259      1.0  0.4285107617905773  0.5276042503643196  0.15436333882438535  1.0000
  H   H260      1.0  0.4454784928434723  0.3942113245149411  0.17450106713609873  1.0000
  H   H261      1.0  0.04158418146136392  0.5857522339931442  0.21399251382304865  1.0000
  H   H262      1.0  0.06027059916103218  0.652263307893096  0.19200187302432853  1.0000
  H   H263      1.0  0.03540785756862814  0.598182861931209  0.11574292455205315  1.0000
  H   H264      1.0  0.019804145798643622  0.5292960424774078  0.13626246146275636  1.0000
  H   H265      1.0  0.49243572252808243  0.5540451677399775  0.23163324216453074  1.0000
  H   H266      1.0  0.4603171767641865  0.538008063388423  0.2707045176751201  1.0000
  H   H267      1.0  0.023075540205730816  0.4455013220867616  0.27522726363882843  1.0000
  H   H268      1.0  0.04356165719420133  0.4540473491775561  0.23315159259520424  1.0000
  H   H269      1.0  0.3661646092612635  0.4435398101307357  0.2519694463370622  1.0000
  H   H270      1.0  0.42302180999704747  0.45824554238401166  0.25566638734578984  1.0000
  H   H271      1.0  0.41293073738442054  0.47391017319353806  0.34065564888613603  1.0000
  H   H272      1.0  0.3564354006314101  0.46134654728216296  0.3370818719415986  1.0000
  H   H273      1.0  0.43933989654040273  0.5481776233203547  0.31951786875485805  1.0000
  H   H274      1.0  0.46026949149950036  0.5971026847234681  0.3531093529504901  1.0000
  H   H275      1.0  0.04300489431292724  0.5281498423250177  0.362746436202624  1.0000
  H   H276      1.0  0.02144013804070627  0.4743338800891505  0.32940128013537245  1.0000
  H   H277      1.0  0.4576616732498752  0.42336655396791745  0.35173435741420195  1.0000
  H   H278      1.0  0.4616722453883979  0.34334127152379584  0.3625586614818093  1.0000
  H   H279      1.0  0.45624570367629014  0.31036965906743613  0.27876267800599513  1.0000
  H   H280      1.0  0.45622963368094643  0.3886103617719847  0.26844516377628547  1.0000
  C   C441      1.0  0.29540718396151194  0.3577785305000106  0.2951616702904769  1.0000
  C   C442      1.0  0.26483268204751664  0.36976569953927896  0.3022183654436736  1.0000
  C   C443      1.0  0.23917100225711801  0.34575437452090024  0.2926721409274178  1.0000
  C   C444      1.0  0.24325456806121878  0.3111376703564181  0.2738542871855598  1.0000
  C   C445      1.0  0.2741384502330755  0.2970355485061278  0.26870562548580257  1.0000
  C   C446      1.0  0.2995725165405355  0.3195289221727083  0.2796450172855221  1.0000
  H   H281      1.0  0.26054259352605175  0.3977249587539786  0.3157300690102523  1.0000
  H   H282      1.0  0.21599242254207804  0.3558571955591504  0.3000014122882487  1.0000
  H   H283      1.0  0.27931620318218914  0.26823667626739217  0.25593492538738505  1.0000
  H   H284      1.0  0.3236202053640626  0.3081142227449018  0.27540292386152604  1.0000
  C   C447      1.0  0.18247301641686117  0.357771610114969  0.2504894584837594  1.0000
  C   C448      1.0  0.1829258092010184  0.3123086808087866  0.2536311516621211  1.0000
  C   C449      1.0  0.15355168834432928  0.29139043972751955  0.25250248425421357  1.0000
  C   C450      1.0  0.12540018022798835  0.31460326149517837  0.25165043121997915  1.0000
  C   C451      1.0  0.12547492128126153  0.36025450731805736  0.25198156083517925  1.0000
  C   C452      1.0  0.1545378467683917  0.3816952060411547  0.250988171989579  1.0000
  C   C453      1.0  0.21527495757767393  0.2842367516711323  0.25862636305239545  1.0000
  C   C454      1.0  0.21087821520341374  0.24557110222810927  0.2794653188967855  1.0000
  C   C455      1.0  0.22896220100961276  0.20711612052473774  0.27597432435604813  1.0000
  C   C456      1.0  0.22708759585742141  0.17382563110386437  0.29379878925230585  1.0000
  C   C457      1.0  0.20827977917029575  0.17768183144664493  0.31615407644434995  1.0000
  C   C458      1.0  0.1894176933579629  0.21485730692796368  0.3201215745776923  1.0000
  C   C459      1.0  0.19109687108719575  0.2486625874417112  0.30194982740207843  1.0000
  C   C460      1.0  0.2404217116450894  0.30017134424603664  0.21302133489066308  1.0000
  C   C461      1.0  0.24748029846663527  0.29227982146847  0.18644777945425314  1.0000
  C   C462      1.0  0.23488957497715884  0.25642501104335275  0.17240525896184458  1.0000
  C   C463      1.0  0.21534305946616508  0.2279085940025604  0.18626444671608136  1.0000
  C   C464      1.0  0.2100124073718123  0.23425659909095287  0.21353014381158025  1.0000
  C   C465      1.0  0.22304415482605905  0.27037021536274874  0.22780304167651524  1.0000
  C   C466      1.0  0.23986768157389635  0.2535839272506838  0.14041793622521534  1.0000
  C   C467      1.0  0.16172400880439536  0.34598830884482457  0.12867797800825903  1.0000
  C   C468      1.0  0.1923798281971868  0.36175016721880787  0.13073724077986  1.0000
  C   C469      1.0  0.21719744113350709  0.33260764514067387  0.13280215698391556  1.0000
  C   C470      1.0  0.21252733927495662  0.28725464795532796  0.13224993777807886  1.0000
  C   C471      1.0  0.18128920961137476  0.27240927350369504  0.12980159770861782  1.0000
  C   C472      1.0  0.15592312257947474  0.30123435870254517  0.12811142331298378  1.0000
  C   C473      1.0  0.23962810624193323  0.2052621816575962  0.1271745687919299  1.0000
  C   C474      1.0  0.25218570778875743  0.1701447699080092  0.14129825642172286  1.0000
  C   C475      1.0  0.25498584745118347  0.1285652943465218  0.12993283810488615  1.0000
  C   C476      1.0  0.24698847015188322  0.12058911964084662  0.10341339409339914  1.0000
  C   C477      1.0  0.2347585810015082  0.1543728309381996  0.08897291233784463  1.0000
  C   C478      1.0  0.2309383337845796  0.19609285398949752  0.10051661568530432  1.0000
  C   C479      1.0  0.2774531612350408  0.28637164792549896  0.10459738437604135  1.0000
  C   C480      1.0  0.30540498190788795  0.30365310782426636  0.09591391403402329  1.0000
  C   C481      1.0  0.3324912495917023  0.3008182388727313  0.11149012998805365  1.0000
  C   C482      1.0  0.3310517733468537  0.2803328386580564  0.13587722042263334  1.0000
  C   C483      1.0  0.3028938835112126  0.26082238938599167  0.14407045740751373  1.0000
  C   C484      1.0  0.2746816448178957  0.26791113643042264  0.1299512117603637  1.0000
  H   H285      1.0  0.2045664441544929  0.3750718821465074  0.24830279157362722  1.0000
  H   H286      1.0  0.15271451644338827  0.25557487446378513  0.2528538046996087  1.0000
  H   H287      1.0  0.10334805781329436  0.2961510572344707  0.2524520071787257  1.0000
  H   H288      1.0  0.15623476675007605  0.4171862058780382  0.25094577124616924  1.0000
  H   H289      1.0  0.24643478945811176  0.20376325691628608  0.25991251893582495  1.0000
  H   H290      1.0  0.24203428154406353  0.14513056809375904  0.29137588962889066  1.0000
  H   H291      1.0  0.17583720452527907  0.21938447427254718  0.3385356117156477  1.0000
  H   H292      1.0  0.1762983878349071  0.27724510350989107  0.3054388028597963  1.0000
  H   H293      1.0  0.2498666255510682  0.33018080293069074  0.2223555556898701  1.0000
  H   H294      1.0  0.26150215738616517  0.31704235407595355  0.17664775620244458  1.0000
  H   H295      1.0  0.20404751963705328  0.19954589965666272  0.17646179865634742  1.0000
  H   H296      1.0  0.19496389106373693  0.21119025307414743  0.22336105903358738  1.0000
  H   H297      1.0  0.19704307794712386  0.3971322654792246  0.1321631172082398  1.0000
  H   H298      1.0  0.24080125324072746  0.34607824626199657  0.13645387053300614  1.0000
  H   H299      1.0  0.17606519488425296  0.2372270277587079  0.13079276556289657  1.0000
  H   H300      1.0  0.13179472602140907  0.2884611923481349  0.12791052455254226  1.0000
  H   H301      1.0  0.262853673255597  0.17500466716760524  0.1606907411909341  1.0000
  H   H302      1.0  0.26537817906196143  0.10242355799579518  0.14155104561576584  1.0000
  H   H303      1.0  0.22935279246675547  0.14949734390960717  0.06772165974087004  1.0000
  H   H304      1.0  0.22173758846746255  0.22245570716289986  0.08845865189277474  1.0000
  H   H305      1.0  0.25630700790968963  0.29209480856483466  0.09277524948019086  1.0000
  H   H306      1.0  0.30537808975281816  0.3195036432680979  0.07672434710827306  1.0000
  H   H307      1.0  0.35246565451963  0.277270310284791  0.1477752728400175  1.0000
  H   H308      1.0  0.3020749851417109  0.2430455965123742  0.1627950295138702  1.0000
  C   C485      1.0  0.30467879035662226  0.43157340102353786  0.3868361157084294  1.0000
  C   C486      1.0  0.2831959954655254  0.40247530542013965  0.3748972778140511  1.0000
  C   C487      1.0  0.2885579201641386  0.35789960765421314  0.37558174695766594  1.0000
  C   C488      1.0  0.31432327354321704  0.3405110507541339  0.3890934505242446  1.0000
  C   C489      1.0  0.33538455790426114  0.3706691059278333  0.40066077714303255  1.0000
  C   C490      1.0  0.33134704427666894  0.41545222797205933  0.39897282373872006  1.0000
  H   H309      1.0  0.2630854248951593  0.41501052128180005  0.36428295838047314  1.0000
  H   H310      1.0  0.2707317109551176  0.3377510075451768  0.3656115150073124  1.0000
  H   H311      1.0  0.3567623369884082  0.35935821722410566  0.41024132607062014  1.0000
  H   H312      1.0  0.34929892752270364  0.43712164459859093  0.4072005870432341  1.0000
  C   C491      1.0  0.350742145579877  0.28242077834369506  0.3446534332647711  1.0000
  C   C492      1.0  0.35197771804522543  0.28231034994956195  0.37284790854924577  1.0000
  C   C493      1.0  0.38169915044427444  0.27561014247396515  0.38499269291161436  1.0000
  C   C494      1.0  0.40783152680955365  0.2654732692825659  0.3698838946766012  1.0000
  C   C495      1.0  0.4060223072301277  0.2627844655349463  0.3422527435545705  1.0000
  C   C496      1.0  0.37737192792905666  0.27152132698890286  0.32973240975057255  1.0000
  C   C497      1.0  0.32041640799120824  0.28747785491011496  0.390827842838006  1.0000
  C   C498      1.0  0.29100009821155964  0.2572248248268884  0.3813320953972379  1.0000
  C   C499      1.0  0.296261630748809  0.21725528732257196  0.3671399608530835  1.0000
  C   C500      1.0  0.27224643069762666  0.18725712653547325  0.3638125120369266  1.0000
  C   C501      1.0  0.2420681218300712  0.19637924656236183  0.3732537442361678  1.0000
  C   C502      1.0  0.23618699858830763  0.23670325919815213  0.38591743293455116  1.0000
  C   C503      1.0  0.26049606968925976  0.2658217874058174  0.3909732168154109  1.0000
  C   C504      1.0  0.3160039715125038  0.29114539300321374  0.443410821915174  1.0000
  C   C505      1.0  0.32200911358158046  0.275554218856236  0.4686614741571993  1.0000
  C   C506      1.0  0.3359437199636572  0.23432587099667698  0.47219083127530737  1.0000
  C   C507      1.0  0.3403439926983502  0.2078601614718913  0.44916722760380456  1.0000
  C   C508      1.0  0.33592629409727176  0.2244674269702234  0.42414675082600384  1.0000
  C   C509      1.0  0.3244921557614013  0.26708993427220157  0.42038116099461265  1.0000
  C   C510      1.0  0.35213230669084455  0.22276732894399293  0.49987649763886494  1.0000
  C   C511      1.0  0.44069736923205344  0.2942643207979907  0.4852442029964567  1.0000
  C   C512      1.0  0.4147829442920657  0.316689912506934  0.4951478052071662  1.0000
  C   C513      1.0  0.38746175616829337  0.2934403027464445  0.500203589088026  1.0000
  C   C514      1.0  0.38497061566506324  0.24781409927641151  0.49503473655807356  1.0000
  C   C515      1.0  0.41062328112195345  0.2268152257883115  0.482815246123983  1.0000
  C   C516      1.0  0.43861821419789476  0.24960806892983936  0.47898706471898694  1.0000
  C   C517      1.0  0.35500075157160105  0.17054807494561777  0.5054794530180126  1.0000
  C   C518      1.0  0.3301858981598673  0.14326667773588214  0.4974576361814887  1.0000
  C   C519      1.0  0.33117491801478005  0.09744867977053753  0.5015119548846702  1.0000
  C   C520      1.0  0.3544787435617728  0.07965974513447974  0.5176383709615178  1.0000
  C   C521      1.0  0.37752054019449505  0.10821857185960027  0.527651003655281  1.0000
  C   C522      1.0  0.37844038452727435  0.15212260242602385  0.5211414800003722  1.0000
  C   C523      1.0  0.3504174523478416  0.24824055746092435  0.5493460506999445  1.0000
  C   C524      1.0  0.3354003892694566  0.2592062702803388  0.573046047182984  1.0000
  C   C525      1.0  0.3029123636843209  0.2619632797174252  0.5741383710965403  1.0000
  C   C526      1.0  0.285202251587003  0.2507996384845677  0.5518900953045304  1.0000
  C   C527      1.0  0.3003937973771884  0.23865823441450018  0.5281739461573347  1.0000
  C   C528      1.0  0.3333040173816051  0.23942163483933146  0.5262416837076612  1.0000
  H   H313      1.0  0.3287041619556188  0.2899174889001097  0.3346670486502615  1.0000
  H   H314      1.0  0.38503001204854603  0.27519699142777293  0.4067604269449803  1.0000
  H   H315      1.0  0.42996532157921014  0.2586884928718192  0.3800176723515352  1.0000
  H   H316      1.0  0.3747475388440211  0.2703864801086772  0.30828570991730914  1.0000
  H   H317      1.0  0.3197632594519545  0.20674395231996434  0.36025084959050635  1.0000
  H   H318      1.0  0.276593467395059  0.15725190729434063  0.3519382847991727  1.0000
  H   H319      1.0  0.21253146415493304  0.2439631284869475  0.39308315857080156  1.0000
  H   H320      1.0  0.25591854780114065  0.29516495231891277  0.4033199094797308  1.0000
  H   H321      1.0  0.30570478252796557  0.3237877679199866  0.44236493691106643  1.0000
  H   H322      1.0  0.31773278064225435  0.29843943460757566  0.4854218823021738  1.0000
  H   H323      1.0  0.34968683043448834  0.17453795753776466  0.44993246006819987  1.0000
  H   H324      1.0  0.34035988241791915  0.20300553311243524  0.40685128568085843  1.0000
  H   H325      1.0  0.4151766354712431  0.35200247723322436  0.49892752861969397  1.0000
  H   H326      1.0  0.3670845656332554  0.31141812461334667  0.5086049935322181  1.0000
  H   H327      1.0  0.4090850722395517  0.19186030358875625  0.4771779663335037  1.0000
  H   H328      1.0  0.459535872605184  0.23294169195484965  0.4705896984408338  1.0000
  H   H329      1.0  0.3097556490133304  0.1573690756814766  0.4875823011330524  1.0000
  H   H330      1.0  0.3113246811202359  0.07676019056717613  0.4950609846373273  1.0000
  H   H331      1.0  0.39513963593344875  0.0962331529717616  0.5417502603805379  1.0000
  H   H332      1.0  0.3969518268852961  0.17271902550383275  0.5298982430559985  1.0000
  H   H333      1.0  0.37607356663389546  0.24803728899201513  0.5496388177377738  1.0000
  H   H334      1.0  0.3491650728860596  0.2685064705138637  0.590608031286705  1.0000
  H   H335      1.0  0.2594287506122228  0.2503216349712779  0.5528955986482478  1.0000
  H   H336      1.0  0.28641497416142797  0.22785616026379596  0.511058179400926  1.0000
  C   C529      1.0  0.3394229617338728  0.684358127861241  0.44803856019589705  1.0000
  C   C530      1.0  0.3399270743462934  0.7179765093411479  0.42964875205417574  1.0000
  C   C531      1.0  0.31440281081266047  0.746903350889139  0.428019352057429  1.0000
  C   C532      1.0  0.28744860901259395  0.7421344757757111  0.44392568808514976  1.0000
  C   C533      1.0  0.28770158701778803  0.707330290186795  0.46179659189085626  1.0000
  C   C534      1.0  0.31274043817791114  0.6786744415080505  0.4638903809820909  1.0000
  H   H337      1.0  0.36044366868147276  0.721721032018488  0.4168073840500753  1.0000
  H   H338      1.0  0.31566759389063864  0.7720624185008286  0.41301352705641103  1.0000
  H   H339      1.0  0.2669205878950157  0.7001343906462603  0.4737031244569224  1.0000
  H   H340      1.0  0.31146007300586653  0.6530881771493436  0.4788416907415821  1.0000
  C   C535      1.0  0.23101060704591922  0.7052933332858564  0.4184428412958805  1.0000
  C   C536      1.0  0.22692840723484733  0.7441264176424558  0.4345975245350013  1.0000
  C   C537      1.0  0.19623236828628005  0.7602058619109408  0.437817961951124  1.0000
  C   C538      1.0  0.17170933179379658  0.7408490208751666  0.42412252182976967  1.0000
  C   C539      1.0  0.17666715375024214  0.7052155203194669  0.40689772459030715  1.0000
  C   C540      1.0  0.20607934164373254  0.6861899780640442  0.40470701951413596  1.0000
  C   C541      1.0  0.2568554461570894  0.772932029192427  0.44257088337905676  1.0000
  C   C542      1.0  0.25338203133918985  0.810659725475186  0.42021559618701265  1.0000
  C   C543      1.0  0.24060698350802967  0.8519516808092894  0.42744189431384844  1.0000
  C   C544      1.0  0.23571085038130107  0.8838886863444058  0.40864423140218564  1.0000
  C   C545      1.0  0.23901918617418103  0.8741904535420946  0.3817540837483161  1.0000
  C   C546      1.0  0.24869446968154998  0.8326729893927161  0.3736272745947776  1.0000
  C   C547      1.0  0.2576089237757015  0.8022039113910355  0.3926005977291381  1.0000
  C   C548      1.0  0.2336208121290699  0.7906052019054676  0.4901424984017944  1.0000
  C   C549      1.0  0.228077757350769  0.8230872317263722  0.5097901952646721  1.0000
  C   C550      1.0  0.24797059491229487  0.8596075011828422  0.512334239869258  1.0000
  C   C551      1.0  0.2757229966461017  0.8588181374309429  0.49749397967584  1.0000
  C   C552      1.0  0.28120509643151753  0.8268882819171607  0.47829451924329414  1.0000
  C   C553      1.0  0.2581070738983812  0.7952836684546353  0.47199901838845365  1.0000
  C   C554      1.0  0.23398527405200434  0.9047306378244651  0.5252462757790414  1.0000
  C   C555      1.0  0.18776194994426784  0.9584037265348578  0.45434213738281554  1.0000
  C   C556      1.0  0.17072988086922122  0.9325719113383002  0.47144175147506817  1.0000
  C   C557      1.0  0.18483807372337788  0.914387996975591  0.49343764188963907  1.0000
  C   C558      1.0  0.2168654019647863  0.9230811230315572  0.49903454001972813  1.0000
  C   C559      1.0  0.2341783305714482  0.9460050416103952  0.4800874649646214  1.0000
  C   C560      1.0  0.2197265754222908  0.965284778083043  0.45867105137665065  1.0000
  C   C561      1.0  0.25945071887914517  0.9379421609091879  0.537536434118815  1.0000
  C   C562      1.0  0.28722852167693386  0.9218962344097096  0.5490270355828615  1.0000
  C   C563      1.0  0.31233582028376977  0.9495152897883868  0.5556334752227069  1.0000
  C   C564      1.0  0.3091661416857803  0.9943623756157645  0.5524392858858379  1.0000
  C   C565      1.0  0.2805145015283  0.011576227640855308  0.5442842095700262  1.0000
  C   C566      1.0  0.2554933429258054  0.9838526038238434  0.5376414264358296  1.0000
  C   C567      1.0  0.1857757642548263  0.9280292764773541  0.5567197418872046  1.0000
  C   C568      1.0  0.1677152897984747  0.9251550383901409  0.5795737425850683  1.0000
  C   C569      1.0  0.17528711937153288  0.8936952573285923  0.5978767301569506  1.0000
  C   C570      1.0  0.2007613250086059  0.8654959860635536  0.5930793889025885  1.0000
  C   C571      1.0  0.21887872126750002  0.8689101685879329  0.5703485522689151  1.0000
  C   C572      1.0  0.21111996284787862  0.899252269941808  0.5510784239306863  1.0000
  H   H341      1.0  0.2541722993715226  0.6914211857096096  0.41372626336229895  1.0000
  H   H342      1.0  0.191284362204274  0.7914946296718486  0.44853727370171664  1.0000
  H   H343      1.0  0.1491248837397072  0.7572725366226895  0.42364803732018413  1.0000
  H   H344      1.0  0.21042236244621784  0.6598226314222879  0.3902180797661131  1.0000
  H   H345      1.0  0.23136727043946517  0.8601751292729605  0.4474934077806286  1.0000
  H   H346      1.0  0.22551220239212394  0.9151345459350924  0.41458235456257236  1.0000
  H   H347      1.0  0.2505977670587624  0.8243193980923483  0.35238046398044603  1.0000
  H   H348      1.0  0.264343827773046  0.7692180794110743  0.3855842842363316  1.0000
  H   H349      1.0  0.21688532881185343  0.7630523473357331  0.4879719841558183  1.0000
  H   H350      1.0  0.20556794451312238  0.8221948287701938  0.5204691253548744  1.0000
  H   H351      1.0  0.29243932286578334  0.8858213149502485  0.49850554026861577  1.0000
  H   H352      1.0  0.30087162187198235  0.8298568833073526  0.4644880295558666  1.0000
  H   H353      1.0  0.14567750325147683  0.9266795400981904  0.4675328067492917  1.0000
  H   H354      1.0  0.16964155008033793  0.8950585204887777  0.5063234297201687  1.0000
  H   H355      1.0  0.2592763896095509  0.9506945896260895  0.4827748644635927  1.0000
  H   H356      1.0  0.23253564061766613  0.9857069597277832  0.44477370295334506  1.0000
  H   H357      1.0  0.2906549164215374  0.886718749963564  0.5503535731266813  1.0000
  H   H358      1.0  0.33384256755681907  0.9345190176805329  0.5632009983798403  1.0000
  H   H359      1.0  0.2773165740216974  0.04698829482576483  0.5429819010224405  1.0000
  H   H360      1.0  0.23272943892976972  0.9977141969553203  0.5315256239697257  1.0000
  H   H361      1.0  0.179472948469309  0.9534628945219965  0.5428769087054259  1.0000
  H   H362      1.0  0.14807835582074094  0.9482795163439938  0.583407981239123  1.0000
  H   H363      1.0  0.20619947314215697  0.8396371703595941  0.6067707908579039  1.0000
  H   H364      1.0  0.24002248953884708  0.8481972921323839  0.5677641260039389  1.0000
  C   C573      1.0  0.23085131274850787  0.6865896422787012  0.22656130561951496  1.0000
  C   C574      1.0  0.21085574308120378  0.7225710179874296  0.22685407265734428  1.0000
  C   C575      1.0  0.22072492281355932  0.7632977301346927  0.23599446148667808  1.0000
  C   C576      1.0  0.2514522016703331  0.7688143476227327  0.24591825452758276  1.0000
  C   C577      1.0  0.27159010903867403  0.7324750481199793  0.24556289591614855  1.0000
  C   C578      1.0  0.2617425522990627  0.6917867132196956  0.23556035863748284  1.0000
  H   H365      1.0  0.18638979134744743  0.7207689414383713  0.21976103400979632  1.0000
  H   H366      1.0  0.20559622521275625  0.7923215843819122  0.23389663422940443  1.0000
  H   H367      1.0  0.29610268739661605  0.736997857733949  0.2514222748387742  1.0000
  H   H368      1.0  0.27812458836545256  0.6644868072871648  0.23423987834272156  1.0000
  C   C579      1.0  0.2912842440788865  0.7973418419290236  0.3008575034885221  1.0000
  C   C580      1.0  0.29080437218719307  0.8213823568559578  0.2771676024205801  1.0000
  C   C581      1.0  0.31140557796572294  0.8575589320875865  0.27592384728056035  1.0000
  C   C582      1.0  0.3238103357733599  0.8756239726323954  0.2986748747444289  1.0000
  C   C583      1.0  0.3189460613689657  0.8574992846386035  0.3232269242617028  1.0000
  C   C584      1.0  0.3056735864031242  0.8159546537957627  0.32368727519015167  1.0000
  C   C585      1.0  0.2625263022193553  0.8175197553408909  0.255288818821141  1.0000
  C   C586      1.0  0.23641899385544404  0.8448534770580415  0.2722975741775156  1.0000
  C   C587      1.0  0.238766723845909  0.8904744959996226  0.276269110476897  1.0000
  C   C588      1.0  0.22491063234581726  0.911070923456294  0.2983356687971508  1.0000
  C   C589      1.0  0.20754818324302912  0.8868654977664912  0.3163580038293207  1.0000
  C   C590      1.0  0.20215987179298395  0.8428470474481315  0.3115626816579782  1.0000
  C   C591      1.0  0.21660452442091574  0.822490049519664  0.29006348566620743  1.0000
  C   C592      1.0  0.3022118182224962  0.8239252173134233  0.2158965091104491  1.0000
  C   C593      1.0  0.313063852038066  0.8415810278336726  0.19277659517891554  1.0000
  C   C594      1.0  0.2965613452204733  0.8739019412557374  0.17923177865081685  1.0000
  C   C595      1.0  0.26720785868922187  0.887113561230778  0.19004295867879736  1.0000
  C   C596      1.0  0.2557741532795848  0.8674864486932483  0.21307383104917044  1.0000
  C   C597      1.0  0.27348141004814186  0.8367176071592498  0.22681974824601256  1.0000
  C   C598      1.0  0.3138817081090131  0.8952624548734015  0.15367382197322177  1.0000
  C   C599      1.0  0.4017060623004049  0.9426538117493155  0.19396785416042803  1.0000
  C   C600      1.0  0.40369448322173557  0.9094453697405892  0.17425150847488693  1.0000
  C   C601      1.0  0.3763979557418593  0.8948703505563848  0.1608726605709922  1.0000
  C   C602      1.0  0.3466930135525866  0.9135604729899208  0.16735533042174147  1.0000
  C   C603      1.0  0.3458974575537257  0.9474207189182401  0.18710620242691622  1.0000
  C   C604      1.0  0.37282389696101914  0.9616390124786945  0.19989265137288592  1.0000
  C   C605      1.0  0.2936316632457806  0.9332951386286681  0.14033111565537632  1.0000
  C   C606      1.0  0.2624615048836855  0.925683908894073  0.13231757705923253  1.0000
  C   C607      1.0  0.2446009242413518  0.9582227200865223  0.12076256684686357  1.0000
  C   C608      1.0  0.2580294614987107  0.9980037396421404  0.11505381151749348  1.0000
  C   C609      1.0  0.29040951422404976  0.004344391943009951  0.11994362677414923  1.0000
  C   C610      1.0  0.30731599434153906  0.9720856547051906  0.13277712035447362  1.0000
  C   C611      1.0  0.33545714856671405  0.873610663517033  0.10565659532807768  1.0000
  C   C612      1.0  0.3454207667102231  0.8431682331683821  0.08620818195922594  1.0000
  C   C613      1.0  0.3432263531068762  0.7983734710256509  0.09056576693193817  1.0000
  C   C614      1.0  0.3245905890180981  0.7850212432256695  0.11149336052088488  1.0000
  C   C615      1.0  0.31272572196150805  0.815412846075562  0.1302258070510174  1.0000
  C   C616      1.0  0.3204100287714675  0.8603142919652254  0.12906988202234643  1.0000
  H   H369      1.0  0.2769725923402095  0.7677841031795953  0.30261208663247857  1.0000
  H   H370      1.0  0.3126504484526353  0.8786276448565896  0.25869097370901983  1.0000
  H   H371      1.0  0.33617603698683396  0.9064848221972328  0.29677087945702846  1.0000
  H   H372      1.0  0.3025336164737135  0.8012330236454817  0.34310075842276583  1.0000
  H   H373      1.0  0.2541703604160432  0.9103448045587154  0.2640799062880991  1.0000
  H   H374      1.0  0.22988067875272802  0.9457106039260005  0.30282610943254695  1.0000
  H   H375      1.0  0.19137407781483723  0.8221878772717492  0.3264695715910401  1.0000
  H   H376      1.0  0.21559617294537647  0.7867149815220911  0.2896455354811683  1.0000
  H   H377      1.0  0.31768611858777807  0.8020497764074305  0.22638766447983685  1.0000
  H   H378      1.0  0.33627481534347015  0.8299707580052996  0.18590181940577694  1.0000
  H   H379      1.0  0.25244170072105293  0.9124063515319578  0.1817865243954062  1.0000
  H   H380      1.0  0.2326616486063312  0.87773158167499  0.22046569398360624  1.0000
  H   H381      1.0  0.42733661319128363  0.8987380425421007  0.16773794665393912  1.0000
  H   H382      1.0  0.3798913751982263  0.8683776649035753  0.14549693956079943  1.0000
  H   H383      1.0  0.323629789721087  0.963168019401821  0.19288380848725165  1.0000
  H   H384      1.0  0.37072722836787186  0.9869130933125427  0.215797574042493  1.0000
  H   H385      1.0  0.25206873660372003  0.8930337484129686  0.13460863056147354  1.0000
  H   H386      1.0  0.2197622448963082  0.9529600145569759  0.11691076217053926  1.0000
  H   H387      1.0  0.3027562337680147  0.03514639716796859  0.11675933094407583  1.0000
  H   H388      1.0  0.3322269116470529  0.9785796111077786  0.13573992277730648  1.0000
  H   H389      1.0  0.342647499054231  0.9076542017749919  0.10309215798499466  1.0000
  H   H390      1.0  0.3572911225878926  0.8548298963416141  0.06856462690151657  1.0000
  H   H391      1.0  0.32245046555192586  0.749984604612945  0.11514063208733252  1.0000
  H   H392      1.0  0.2986914709970014  0.801407304774041  0.14637100059994645  1.0000
  C   C617      1.0  0.13955658381949199  0.9278703331613509  0.40400034045730654  1.0000
  C   C618      1.0  0.14633464723995065  0.8837805571365024  0.40673014069968766  1.0000
  C   C619      1.0  0.12274002223527995  0.8529442434184126  0.41011816200642986  1.0000
  C   C620      1.0  0.09130634534103269  0.8663592270932022  0.4128358477506939  1.0000
  C   C621      1.0  0.08442932517975998  0.9107462028303147  0.4082747392096148  1.0000
  C   C622      1.0  0.10838834194533072  0.940303177991176  0.403521817781682  1.0000
  H   H393      1.0  0.17080332935516948  0.8720451447460994  0.40708751839414137  1.0000
  H   H394      1.0  0.1292226099275593  0.8189303953301187  0.41240174490149867  1.0000
  H   H395      1.0  0.06000962443768099  0.9222481925732018  0.41059668468205435  1.0000
  H   H396      1.0  0.10143577420720831  0.9743964095855616  0.4013028455432376  1.0000
  C   C623      1.0  0.0716975405819273  0.8824702248441813  0.4687341611459017  1.0000
  C   C624      1.0  0.05212584684950817  0.853874064753219  0.45328009971455185  1.0000
  C   C625      1.0  0.024627234504274273  0.8378974534203601  0.46566515495624244  1.0000
  C   C626      1.0  0.017937450930388295  0.8507215787417142  0.49174766940230696  1.0000
  C   C627      1.0  0.036396606253089485  0.8812217643514105  0.5056066552482418  1.0000
  C   C628      1.0  0.06313362113549155  0.8968779818070427  0.4940130805502001  1.0000
  C   C629      1.0  0.06530168280070349  0.8338113516470794  0.42538041055092607  1.0000
  C   C630      1.0  0.07739159857113348  0.7865217111321989  0.4366650655469822  1.0000
  C   C631      1.0  0.06189483513293732  0.7462578058737486  0.4305432058318198  1.0000
  C   C632      1.0  0.0729621420513889  0.7069383465632664  0.4399379991216123  1.0000
  C   C633      1.0  0.09916512291185539  0.7059019434149593  0.4563450677381721  1.0000
  C   C634      1.0  0.11266611795252748  0.7447772330422618  0.4652673956013985  1.0000
  C   C635      1.0  0.10231453376183831  0.784226943892315  0.45526687740575233  1.0000
  C   C636      1.0  0.012446269181715154  0.8545909671631577  0.4026576502493306  1.0000
  C   C637      1.0  0.4889490746306184  0.8228220947658205  0.4152607664571286  1.0000
  C   C638      1.0  0.48952795657956727  0.7885316867795324  0.39594823737549  1.0000
  C   C639      1.0  0.016986450034386372  0.7854181780304703  0.36594264462251247  1.0000
  C   C640      1.0  0.043133528334737915  0.7988600439663133  0.38080511472914513  1.0000
  C   C641      1.0  0.03955260509571787  0.8292322911690644  0.4020458680944182  1.0000
  C   C642      1.0  0.4571026601887655  0.7675508512025485  0.38477867011154604  1.0000
  C   C643      1.0  0.4192073381870067  0.6895176477415669  0.45049578423064396  1.0000
  C   C644      1.0  0.41489153577043436  0.7352008654251877  0.4513983143403661  1.0000
  C   C645      1.0  0.4273785189389627  0.7600560459854447  0.43121757956033707  1.0000
  C   C646      1.0  0.4466871638269231  0.7405395630517101  0.4110630928595618  1.0000
  C   C647      1.0  0.45632436391918896  0.6969007048864851  0.41441275158893326  1.0000
  C   C648      1.0  0.4418817996385741  0.6710415630739034  0.4335072197044645  1.0000
  C   C649      1.0  0.4585020769083414  0.7373749002431393  0.3580015911067692  1.0000
  C   C650      1.0  0.4776576536326558  0.7507068294940001  0.3370657192774425  1.0000
  C   C651      1.0  0.4735983403620187  0.7320949480875287  0.3117585327108709  1.0000
  C   C652      1.0  0.4510376591626944  0.7004117946317026  0.3064564207016307  1.0000
  C   C653      1.0  0.4331059453446398  0.6858956638701604  0.3271843269799476  1.0000
  C   C654      1.0  0.43696101164681883  0.7030900112717738  0.3526066012786314  1.0000
  C   C655      1.0  0.3999605615402028  0.7938175449145842  0.3748992968970706  1.0000
  C   C656      1.0  0.3774878573111459  0.8239630034582653  0.36740042256260064  1.0000
  C   C657      1.0  0.3858188516017117  0.8668566991723582  0.3616480550400091  1.0000
  C   C658      1.0  0.41754163197945715  0.8773168843868371  0.36167632220228224  1.0000
  C   C659      1.0  0.4403472007007637  0.8457842746431719  0.3674286897248738  1.0000
  C   C660      1.0  0.4318900554190615  0.8040325674601644  0.3756968346897781  1.0000
  H   H397      1.0  0.09399530255704525  0.8947964439050315  0.46151795843416354  1.0000
  H   H398      1.0  0.01062595606143823  0.8123644902345751  0.4556525222624792  1.0000
  H   H399      1.0  0.9983636915691316  0.8358576007719263  0.5020813362961728  1.0000
  H   H400      1.0  0.07798881172640348  0.9212997773580882  0.5040963811496464  1.0000
  H   H401      1.0  0.04048864747446676  0.7432493184607516  0.4188244479865684  1.0000
  H   H402      1.0  0.06064089480507917  0.6765774679278993  0.43440167348210856  1.0000
  H   H403      1.0  0.13292952306097608  0.7453059619595798  0.47881948082836745  1.0000
  H   H404      1.0  0.11473326600188753  0.8139362584937939  0.4618834124606953  1.0000
  H   H405      1.0  0.00970111411295041  0.881118359827026  0.417649341669212  1.0000
  H   H406      1.0  0.46717520781482613  0.8404058325892108  0.4196946727679784  1.0000
  H   H407      1.0  0.019209852532435453  0.7547770151358152  0.35406034105268047  1.0000
  H   H408      1.0  0.06538234198063617  0.7814889174532116  0.37790369243010546  1.0000
  H   H409      1.0  0.3983837322393667  0.751216502015693  0.4654915138165644  1.0000
  H   H410      1.0  0.4209497648511243  0.7947079825094222  0.43103990025461997  1.0000
  H   H411      1.0  0.47323786311559574  0.6828971079080179  0.40008130031643246  1.0000
  H   H412      1.0  0.4469358072391839  0.6356676480346414  0.4327379490740301  1.0000
  H   H413      1.0  0.9884706831786805  0.7939013398931364  0.3095133123931728  1.0000
  H   H414      1.0  0.4879451884083828  0.7450634909378006  0.295500876237755  1.0000
  H   H415      1.0  0.4145472992045663  0.6618747712756382  0.3229866533823808  1.0000
  H   H416      1.0  0.42018826877977944  0.6916071472859258  0.3674690713852641  1.0000
  H   H417      1.0  0.3917981696495887  0.7612895477510858  0.3805769583479402  1.0000
  H   H418      1.0  0.3532200044888645  0.8133813662628748  0.3663585757245321  1.0000
  H   H419      1.0  0.42387800163047773  0.9099094906015925  0.35575435170605163  1.0000
  H   H420      1.0  0.4650131901308514  0.8550728476072282  0.3660557132716052  1.0000
  C   C661      1.0  0.4737009778552154  0.9180982910163035  0.2315807460060234  1.0000
  C   C662      1.0  0.4750166878219144  0.8813240297938719  0.21429335719295606  1.0000
  C   C663      1.0  0.502965377633473  0.8582049882622688  0.2107115039163406  1.0000
  C   C664      1.0  0.989922407592773  0.869550543360773  0.22675513758938817  1.0000
  C   C665      1.0  0.9905751150209073  0.9025248074538362  0.24712364709023182  1.0000
  C   C666      1.0  0.49999971074027216  0.9286219240551591  0.2471539333355245  1.0000
  H   H421      1.0  0.45438860407631754  0.8723974637639094  0.20291380529498274  1.0000
  H   H422      1.0  0.502236816035241  0.8345722626503627  0.1938921385471963  1.0000
  H   H423      1.0  0.013030265830341663  0.9134938604812629  0.25508691051918975  1.0000
  H   H424      1.0  0.4999263901613127  0.9581801975352369  0.26032239278878605  1.0000
  C   C667      1.0  0.01794809955008604  0.9130819814885599  0.17982236043402433  1.0000
  C   C668      1.0  0.035626818167195574  0.8980648892245633  0.20151962847000926  1.0000
  C   C669      1.0  0.06214817446726859  0.922222068063647  0.20919113440264755  1.0000
  C   C670      1.0  0.07333497746488282  0.9547280187762482  0.19299566568653265  1.0000
  C   C671      1.0  0.056972226045497454  0.9673568106919523  0.17053578999407779  1.0000
  C   C672      1.0  0.028612447592508812  0.9472767527397995  0.16460655079897696  1.0000
  C   C673      1.0  0.023802049998580828  0.854021436680381  0.21485870043841962  1.0000
  C   C674      1.0  0.02249924033396562  0.8137539804645434  0.19271036925587554  1.0000
  C   C675      1.0  0.042878253933378796  0.8137496172932368  0.1704247404280046  1.0000
  C   C676      1.0  0.04402664318199615  0.7797201489895258  0.15192125791228478  1.0000
  C   C677      1.0  0.025370504921402873  0.7436806206149512  0.1547820966426323  1.0000
  C   C678      1.0  0.005192608709479026  0.7422450234041329  0.1760896816558513  1.0000
  C   C679      1.0  0.004553421668955934  0.7758865439266388  0.1952899497216049  1.0000
  C   C680      1.0  0.07875872525085516  0.8242235362612802  0.22879239235607643  1.0000
  C   C681      1.0  0.09342252531953901  0.788036137496145  0.23931181488773734  1.0000
  C   C682      1.0  0.07804540555383514  0.7609109357770208  0.25662545178005836  1.0000
  C   C683      1.0  0.05047718612278565  0.7780628117286043  0.2686753392405099  1.0000
  C   C684      1.0  0.0349608390866577  0.813518317761346  0.2583194624334295  1.0000
  C   C685      1.0  0.047643649640619554  0.8346701384718481  0.23637404909434645  1.0000
  C   C686      1.0  0.08757447095940601  0.7100587860564624  0.2614611556117912  1.0000
  C   C687      1.0  0.15831341990133835  0.6430710209052581  0.2122419688451312  1.0000
  C   C688      1.0  0.1508372938389052  0.6281696800385992  0.23719177771724909  1.0000
  C   C689      1.0  0.12590146809228603  0.6457368189741612  0.2513354542689352  1.0000
  C   C690      1.0  0.10965934171484429  0.682065345329229  0.24189422206969402  1.0000
  C   C691      1.0  0.1135148944220253  0.6919703311983809  0.2151938682196587  1.0000
  C   C692      1.0  0.1374875252221346  0.6722428451620142  0.20026820081451532  1.0000
  C   C693      1.0  0.05594358154330075  0.6812957488591974  0.25874750803356616  1.0000
  C   C694      1.0  0.03613613841216321  0.689118894604148  0.2367213313737026  1.0000
  C   C695      1.0  0.00615834652199276  0.6729551298734828  0.2351363512033852  1.0000
  C   C696      1.0  0.9952631095571225  0.6468714666516662  0.2550848914361702  1.0000
  C   C697      1.0  0.014766922641304393  0.6351791582300617  0.27583298854468224  1.0000
  C   C698      1.0  0.04557255353191067  0.6500851132982755  0.27671128965817027  1.0000
  C   C699      1.0  0.08905568233789532  0.7153753760648409  0.3147124511684179  1.0000
  C   C700      1.0  0.10562498108124847  0.720629633444706  0.338501287304316  1.0000
  C   C701      1.0  0.1382857817210263  0.7241550219722946  0.3379319058928134  1.0000
  C   C702      1.0  0.15394763968194222  0.7260143479471549  0.3140400965229202  1.0000
  C   C703      1.0  0.1375622661297216  0.7241088066293426  0.2908428517117393  1.0000
  C   C704      1.0  0.10502860120928803  0.7149461704643092  0.29027145121721726  1.0000
  H   H425      1.0  0.9962374754533615  0.8964685063822326  0.17382810676569516  1.0000
  H   H426      1.0  0.07680101994727487  0.9129596195722748  0.22602221045330506  1.0000
  H   H427      1.0  0.09574886612710518  0.9700436860161513  0.19814049112855286  1.0000
  H   H428      1.0  0.015497806930438174  0.9551423439061405  0.14679702711706363  1.0000
  H   H429      1.0  0.05936150510183956  0.8409324943454579  0.16700946150049895  1.0000
  H   H430      1.0  0.061151896998043805  0.7804798367387453  0.1356930800512538  1.0000
  H   H431      1.0  0.9903937894571871  0.7131993681621307  0.17877203344727383  1.0000
  H   H432      1.0  0.9893633855472345  0.7726706080690304  0.21266395719620934  1.0000
  H   H433      1.0  0.08941052537861416  0.8375777055527434  0.21102648086738457  1.0000
  H   H434      1.0  0.11595280502334362  0.7781418995169657  0.2310032882624428  1.0000
  H   H435      1.0  0.03860885496965892  0.7609083715677794  0.2849390529626843  1.0000
  H   H436      1.0  0.011662500180531766  0.821582069289979  0.266292821277485  1.0000
  H   H437      1.0  0.1664122555056162  0.6059162873625102  0.24747900570166603  1.0000
  H   H438      1.0  0.12231028975878956  0.6356525629262123  0.2722067154416375  1.0000
  H   H439      1.0  0.09914632064142549  0.7165550491170106  0.20572638794116385  1.0000
  H   H440      1.0  0.14308713235031412  0.6844628709749522  0.18077476189432842  1.0000
  H   H441      1.0  0.04223631019284388  0.7124224788486195  0.22162060947076748  1.0000
  H   H442      1.0  0.5008398377879071  0.6728398721031899  0.23106184167000862  1.0000
  H   H443      1.0  0.005799168732523486  0.6143069681162089  0.29141829037230044  1.0000
  H   H444      1.0  0.060371798626506414  0.6393969956725533  0.2931405681879447  1.0000
  H   H445      1.0  0.06341222769908042  0.7124228082185963  0.31560690494606203  1.0000
  H   H446      1.0  0.09294446543937727  0.7216762772151968  0.3574725913556569  1.0000
  H   H447      1.0  0.17880571081321395  0.7339366782991591  0.3132304442320956  1.0000
  H   H448      1.0  0.15109292493804005  0.7267198864409662  0.27240458557754976  1.0000
  C   C705      1.0  0.44439605337547583  0.6826793330261143  0.27720394591493136  1.0000
  C   C706      1.0  0.46067928442117095  0.6378333400276752  0.268699568236744  1.0000
  H   H449      1.0  0.41842382455800714  0.679100884858745  0.2745831761556039  1.0000
  H   H450      1.0  0.4511490980350952  0.7077202350749404  0.26243233454417675  1.0000
  H   H451      1.0  0.4517205526224631  0.6287701574102057  0.24829067707551014  1.0000
  H   H452      1.0  0.45286266501910355  0.6110886793973751  0.2817630353729909  1.0000
  C   C707      1.0  0.21979170407967188  0.6391093169866229  0.21818413017155697  1.0000
  C   C708      1.0  0.19092997940002626  0.6338498285654784  0.1992796577681619  1.0000
  H   H453      1.0  0.23968402400898242  0.6211451582294518  0.20787671135694485  1.0000
  H   H454      1.0  0.21508967229194526  0.621084387041846  0.23670719779256602  1.0000
  H   H455      1.0  0.19024759061248953  0.5990274657345552  0.19138564888677329  1.0000
  H   H456      1.0  0.19403287032075264  0.6545808736850803  0.18122865175711486  1.0000
  C   C709      1.0  0.44274442771901895  0.9450296305395086  0.2334483977990726  1.0000
  C   C710      1.0  0.4310381668337795  0.9638468721854614  0.2068005401075446  1.0000
  H   H457      1.0  0.4457673746422786  0.9741643511722246  0.24767889492059778  1.0000
  H   H458      1.0  0.4233477494384555  0.925847960587263  0.24297443148513329  1.0000
  H   H459      1.0  0.4507631109499261  0.9632204525528194  0.1916913380559275  1.0000
  H   H460      1.0  0.42654392137318387  4.2156763941036957e-05  0.20955456934615985  1.0000
  C   C711      1.0  0.325921655958814  0.8869396465232219  0.34856439707356707  1.0000
  C   C712      1.0  0.3606890427414145  0.9012464365855503  0.35307502853915834  1.0000
  H   H461      1.0  0.3106165697026916  0.9166939635764053  0.3468279856767862  1.0000
  H   H462      1.0  0.3169965257100494  0.8723745879614334  0.36702083495493226  1.0000
  H   H463      1.0  0.36895456940924004  0.9179657923514315  0.3353434414617982  1.0000
  H   H464      1.0  0.35904679727237937  0.9269995713237607  0.36887031500080586  1.0000
  C   C713      1.0  0.15186538683111803  0.6958383107072882  0.38505528448521925  1.0000
  C   C714      1.0  0.15532333826504172  0.7326351148040394  0.36438996978050725  1.0000
  H   H465      1.0  0.15532408771740505  0.6633182208901922  0.37432183915349004  1.0000
  H   H466      1.0  0.1274386024528434  0.695493798005029  0.3935960056577578  1.0000
  H   H467      1.0  0.18137791251830973  0.7369922027383888  0.3608888798246723  1.0000
  H   H468      1.0  0.14860799317281292  0.7658770430605609  0.3725995613378457  1.0000
  C   C715      1.0  0.1655079923725333  0.9641452218575334  0.404396080729131  1.0000
  C   C716      1.0  0.16994510207200555  0.9849381841812783  0.4334850097912498  1.0000
  H   H469      1.0  0.188347008877931  0.9516281293923867  0.39569181383201196  1.0000
  H   H470      1.0  0.15971002952187044  0.99027193714282  0.38992531272828385  1.0000
  H   H471      1.0  0.14624635080313086  0.9936899911089834  0.4415573037032614  1.0000
  H   H472      1.0  0.1831956976749518  0.016747670709214103  0.43211809058703976  1.0000
  C   C717      1.0  0.3665275695894439  0.6485074897232677  0.4483293081507068  1.0000
  C   C718      1.0  0.3957105516060957  0.661964073853814  0.4657883190204327  1.0000
  H   H473      1.0  0.3569061125870359  0.6184365742946548  0.4575948801272504  1.0000
  H   H474      1.0  0.37394069265058405  0.6376439591844226  0.42779927200830214  1.0000
  H   H475      1.0  0.40762222744322807  0.6312874889811612  0.47209997253942937  1.0000
  H   H476      1.0  0.38789432542205643  0.6791899212389726  0.4845173331094321  1.0000
  C   C719      1.0  0.2339259140886967  0.9106612732170059  0.3613472116701017  1.0000
  C   C720      1.0  0.20325306634099857  0.906853201573081  0.3444232578005466  1.0000
  H   H477      1.0  0.25533110097729134  0.9121558379019249  0.3482776872847963  1.0000
  H   H478      1.0  0.2335843821668931  0.9440001425689513  0.37199989368105046  1.0000
  H   H479      1.0  0.19338028762080756  0.9404097143851866  0.3418711368638826  1.0000
  H   H480      1.0  0.18440316448184116  0.8888065540323152  0.3555564815701394  1.0000
  C   C721      1.0  0.35379421825131063  0.03163879800342281  0.5261407295566854  1.0000
  C   C722      1.0  0.33789371828551357  0.024185129676691546  0.5539657126485894  1.0000
  H   H481      1.0  0.3433309941373123  0.0092740584136628  0.5102969851025697  1.0000
  H   H482      1.0  0.37861807458055413  0.019932536489870943  0.5272068053909882  1.0000
  H   H483      1.0  0.3301377010667588  0.057294872120465044  0.5626336360513572  1.0000
  H   H484      1.0  0.35579026562881666  0.010827268001570634  0.5679498816417341  1.0000
  C   C723      1.0  0.2372131002253809  0.03493864850426505  0.10370212296518944  1.0000
  C   C724      1.0  0.25378736605364943  0.07474553788379104  0.08927436143265786  1.0000
  H   H485      1.0  0.22096031460808843  0.047738807633632016  0.11984327834807945  1.0000
  H   H486      1.0  0.2203558526145276  0.019689513634531863  0.08908355808731391  1.0000
  H   H487      1.0  0.24435359312739996  0.07422388527885215  0.06848366167243411  1.0000
  H   H488      1.0  0.27964301167242384  0.07017132370816757  0.08625886094301571  1.0000
  C   C725      1.0  0.21544218722264669  0.16293504696804195  0.3677436666759178  1.0000
  C   C726      1.0  0.2129324805864504  0.14397553723783663  0.3385941651232136  1.0000
  H   H489      1.0  0.21874866803579662  0.13484401176251418  0.3815986143558136  1.0000
  H   H490      1.0  0.19202192384981853  0.17796029808860056  0.3738836981382557  1.0000
  H   H491      1.0  0.19247998351791232  0.12126228087084623  0.3382812072551892  1.0000
  H   H492      1.0  0.233455809902427  0.12207942312103712  0.3343238045369443  1.0000
  C   C727      1.0  0.028907317700914172  0.7045072710476402  0.1342177360888959  1.0000
  C   C728      1.0  0.05793895101565589  0.6734682442811708  0.13954003892833125  1.0000
  H   H493      1.0  0.00636349060766736  0.685487568879042  0.1336750065732509  1.0000
  H   H494      1.0  0.030952432292537326  0.7174990249724214  0.11372909114839123  1.0000
  H   H495      1.0  0.0769409041468499  0.6904228175001472  0.15169532252240134  1.0000
  H   H496      1.0  0.06991909284983126  0.6655919762709499  0.11967327155783648  1.0000
  C   C729      1.0  0.46512062840696083  0.27390805772405713  0.32831905163691366  1.0000
  C   C730      1.0  0.4343250433790743  0.2468134263713879  0.3250138127339715  1.0000
  H   H497      1.0  0.47481022598937894  0.2701518694050697  0.34905907241334766  1.0000
  H   H498      1.0  0.483953728321921  0.2599571263087379  0.31513040135345705  1.0000
  H   H499      1.0  0.4398555587208098  0.21240449838895445  0.33016853168278726  1.0000
  H   H500      1.0  0.42769172266582106  0.24312699052667938  0.3035933609799617  1.0000
  C   C731      1.0  0.32432414456328695  0.3846521683112105  0.3058103141353866  1.0000
  C   C732      1.0  0.3247511786288068  0.43064855978504835  0.2930779766143398  1.0000
  H   H501      1.0  0.32399409401943996  0.389203809425527  0.328363471463343  1.0000
  H   H502      1.0  0.3464705172125554  0.3655013607091845  0.3018327205869467  1.0000
  H   H503      1.0  0.3055773991037562  0.45085061613072  0.30294523533069817  1.0000
  H   H504      1.0  0.31708934224161006  0.42760689101489485  0.27130216624889586  1.0000
  C   C733      1.0  0.1283620662071155  0.38757817266502126  0.16287114894370583  1.0000
  C   C734      1.0  0.13471363966420807  0.37845298817891726  0.13228809844714765  1.0000
  H   H505      1.0  0.15053021978427555  0.40081139710798397  0.1720533327915435  1.0000
  H   H506      1.0  0.1235441250989271  0.3561271128427012  0.17331101960439796  1.0000
  H   H507      1.0  0.14090622816221457  0.4095950497559433  0.12218440510920436  1.0000
  H   H508      1.0  0.11305432077093018  0.36501220201504997  0.12223387264318245  1.0000
  C   C735      1.0  0.09517563826562123  0.6344669886199711  0.4836491274110417  1.0000
  C   C736      1.0  0.11304747841565209  0.6597604203755908  0.4618813933776758  1.0000
  H   H509      1.0  0.06933138639858785  0.6425301741190825  0.4819006015161437  1.0000
  H   H510      1.0  0.10142536962088394  0.6486507536414633  0.5039671598363975  1.0000
  H   H511      1.0  0.11357028191068096  0.6394787515176831  0.4429282610735105  1.0000
  H   H512      1.0  0.13888984819433672  0.6637185124531961  0.4666141239754134  1.0000
  C   C737      1.0  0.05552982186577456  0.636011116626049  0.3618923640853701  1.0000
  C   C738      1.0  0.024857340452717317  0.6131145527562445  0.37246428277553834  1.0000
  H   H513      1.0  0.05880531463876201  0.6679974607196278  0.3731871144965239  1.0000
  H   H514      1.0  0.0516123045776621  0.6459200252494072  0.3406839160484092  1.0000
  H   H515      1.0  0.006789424066778262  0.6388320005601843  0.3779420550074762  1.0000
  H   H516      1.0  0.029910151778915834  0.5973061047110952  0.3918333461817233  1.0000
  C   C739      1.0  0.09345083707186357  0.38548851659110844  0.2578934359163123  1.0000
  C   C740      1.0  0.0784280928886824  0.3763018058715912  0.28553266337042105  1.0000
  H   H517      1.0  0.07626126606987804  0.37606127673215733  0.24194066097914282  1.0000
  H   H518      1.0  0.0980908651767806  0.42121728961795807  0.2550546051908775  1.0000
  H   H519      1.0  0.07886580464075373  0.34043222693451397  0.2886178222242364  1.0000
  H   H520      1.0  0.05249093684382179  0.38354677397387166  0.28588802198185526  1.0000
  C   C741      1.0  0.004805843344545029  0.32746760043022427  0.5073147994827496  1.0000
  C   C742      1.0  0.47217605162848136  0.3182241218149953  0.48232460895024143  1.0000
  H   H521      1.0  0.9941450541419045  0.3368286154936918  0.5271401756513443  1.0000
  H   H522      1.0  0.013652469550889286  0.29285677274558725  0.5089623712266719  1.0000
  H   H523      1.0  0.48515783145247177  0.3035660614546571  0.464788872925774  1.0000
  H   H524      1.0  0.4682727901789949  0.3533332501351583  0.47685693213340113  1.0000
  C   C743      1.0  0.3008472956330852  0.4818025309614709  0.3839548842395849  1.0000
  C   C744      1.0  0.28599424597872436  0.5000052863523571  0.3579834193595936  1.0000
  H   H525      1.0  0.2886965768593428  0.4956626329400557  0.4018055972150963  1.0000
  H   H526      1.0  0.32470647938886066  0.49796306171683014  0.38477867011154604  1.0000
  H   H527      1.0  0.293881595731861  0.5346839464378804  0.35545148925312475  1.0000
  H   H528      1.0  0.29519578802936536  0.48128379535161897  0.33988637825570167  1.0000
  C   C745      1.0  0.057527702972504  0.8697126432108374  0.552310064572589  1.0000
  C   C746      1.0  0.031685312477357015  0.8931757062248451  0.5358969387069706  1.0000
  H   H529      1.0  0.08021975153163585  0.8880538289298081  0.5506645119116862  1.0000
  H   H530      1.0  0.06247414130752221  0.8370558319948634  0.5420470655844062  1.0000
  H   H531      1.0  0.0328848500225417  0.9291734634897669  0.5405549632329864  1.0000
  H   H532      1.0  0.00783791356006234  0.8822418515802826  0.5424024241958405  1.0000
  C   C747      1.0  0.07209199154283137  0.0012542677278557512  0.15264065719213715  1.0000
  C   C748      1.0  0.062431804159451855  0.0002283236545628231  0.1228662494448938  1.0000
  H   H533      1.0  0.06609704756496125  0.03388264520088231  0.16146021372967037  1.0000
  H   H534      1.0  0.09854798552802368  0.9988819757676568  0.15373863453814812  1.0000
  H   H535      1.0  0.07525074910143237  0.028268748456272225  0.11413008103606644  1.0000
  H   H536      1.0  0.03677535943637437  0.008666520803867206  0.12105210335186167  1.0000
  C   C749      1.0  0.18084683093839277  0.8048117683454548  0.860082927402942  1.0000
  C   C750      1.0  0.18604650177392162  0.8166105745238716  0.8303256818613645  1.0000
  H   H537      1.0  0.20369553577896915  0.7904768421216313  0.8669134852579533  1.0000
  H   H538      1.0  0.16417683871091884  0.7767478333608272  0.8613751405354301  1.0000
  H   H539      1.0  0.196049401433373  0.7878922213044688  0.8191137138540108  1.0000
  H   H540      1.0  0.2041390206704256  0.8433148147712833  0.8291788427062813  1.0000
  C   C751      1.0  0.3598801615830599  0.7658010968003801  0.0711791375034835  1.0000
  C   C752      1.0  0.3970545213386184  0.7653414409087375  0.07308151752446833  1.0000
  H   H541      1.0  0.35014466589154075  0.7322128564866226  0.07383079923300948  1.0000
  H   H542      1.0  0.352512207802648  0.7728090826734361  0.050419127805156345  1.0000
  H   H543      1.0  0.40486141347167676  0.7341084889002015  0.06269696973851084  1.0000
  H   H544      1.0  0.4060780152928542  0.7627836968062404  0.09409148970061117  1.0000
  C   C753      1.0  0.4292817061812243  0.8097322237398502  0.8458201249531045  1.0000
  C   C754      1.0  0.4270584502449217  0.8060115459252095  0.8149099830073853  1.0000
  H   H545      1.0  0.4067241399478761  0.7966081797630996  0.8535552320008576  1.0000
  H   H546      1.0  0.4477181054360272  0.785812465529089  0.8529616215931207  1.0000
  H   H547      1.0  0.40839880985726806  0.8285489402727411  0.8077866581145446  1.0000
  H   H548      1.0  0.41929530920536556  0.7721709035036117  0.8090243560055059  1.0000
  C   C755      1.0  0.2618771898712154  0.9075636206278432  0.04030231042758624  1.0000
  C   C756      1.0  0.25196141768162506  0.8628846085074446  0.05242064480239924  1.0000
  H   H549      1.0  0.2541209121231582  0.9355866923274543  0.05348369201217265  1.0000
  H   H550      1.0  0.24883027883521858  0.9131042312581058  0.021528270787251728  1.0000
  H   H551      1.0  0.2621077990331031  0.8608007043684468  0.07279581727720728  1.0000
  H   H552      1.0  0.2624820279295406  0.8356404853143125  0.04033703865552186  1.0000
  C   C757      1.0  0.08378486687985538  0.08998636334729757  0.9041150898924739  1.0000
  C   C758      1.0  0.05001270198941498  0.10229446884418732  0.9139843676918518  1.0000
  H   H553      1.0  0.09825845525774862  0.12084314313293053  0.905316444289084  1.0000
  H   H554      1.0  0.08185760387683982  0.08368196163643635  0.8820404552401421  1.0000
  H   H555      1.0  0.0417896396078927  0.13375017198770747  0.905403264858923  1.0000
  H   H556      1.0  0.05116985839201307  0.11140903590790095  0.9356410521591445  1.0000
  C   C759      1.0  0.16633505378272642  0.8699453285837059  0.6503224115887918  1.0000
  C   C760      1.0  0.1543412304811009  0.8911839606013571  0.6236725348142442  1.0000
  H   H557      1.0  0.17869339023340333  0.8381010937600155  0.6460217647572298  1.0000
  H   H558      1.0  0.1457752859459844  0.8609404798078224  0.6635231763703655  1.0000
  H   H559      1.0  0.14567649219083556  0.9243949611673533  0.6297095930425871  1.0000
  H   H560      1.0  0.13332559978634306  0.8720544925813696  0.617574904095316  1.0000
  C   C761      1.0  0.291829809907409  0.8798552100474349  0.922169730252956  1.0000
  C   C762      1.0  0.29219009885472425  0.9204801676523181  0.9425685259990925  1.0000
  H   H561      1.0  0.27682259164053574  0.852975424816387  0.9297029289987578  1.0000
  H   H562      1.0  0.31614789301653795  0.8661276491510679  0.9206150363279313  1.0000
  H   H563      1.0  0.3059822676999329  0.9100764839893127  0.9602980939934331  1.0000
  H   H564      1.0  0.30569947428311794  0.9482733073267445  0.9340883773171392  1.0000
  C   C763      1.0  0.1248211103439868  0.06719543666416491  0.8365908964709121  1.0000
  C   C764      1.0  0.10805467955163887  0.07122351328925915  0.8087275508016376  1.0000
  H   H565      1.0  0.12613858198083058  0.09976123111867279  0.8477140248254075  1.0000
  H   H566      1.0  0.11035293442684181  0.047249264837164996  0.8506437142867204  1.0000
  H   H567      1.0  0.12280911453665987  0.09102658450711541  0.7949250992802491  1.0000
  H   H568      1.0  0.08596886496043514  0.0906357757018764  0.8119096256403895  1.0000
  C   C765      1.0  0.38659823508372876  0.9010614005955337  0.7021664062808182  1.0000
  C   C766      1.0  0.3904239798532773  0.8581714490153239  0.6853171584829851  1.0000
  H   H569      1.0  0.39622176586037294  0.897997848951311  0.7229346942195255  1.0000
  H   H570      1.0  0.4013343063427569  0.9260865549041022  0.692614124515504  1.0000
  H   H571      1.0  0.3768019306026799  0.8601574798808046  0.6662247094504735  1.0000
  H   H572      1.0  0.3770325389240664  0.8323303865510473  0.6960506038147144  1.0000
  C   C767      1.0  0.3382410649638377  0.12312614857934943  0.8897493142086413  1.0000
  C   C768      1.0  0.37326281042535  0.13021453990446646  0.8807967001001223  1.0000
  H   H573      1.0  0.3384726764100074  0.11849456240645424  0.9117028038798024  1.0000
  H   H574      1.0  0.32501277295050574  0.15436289607858422  0.8872294986002895  1.0000
  H   H575      1.0  0.3820045738017575  0.16203686938899087  0.8888770703442119  1.0000
  H   H576      1.0  0.3746975518087033  0.1374980819455355  0.8594590307499126  1.0000
  C   C769      1.0  0.2849400072456775  0.2806980892605354  0.5989710731535265  1.0000
  C   C770      1.0  0.2958781691964642  0.3277743469934456  0.6078328285261675  1.0000
  H   H577      1.0  0.2589565752568303  0.2825574100707838  0.5953246092202866  1.0000
  H   H578      1.0  0.28627539420198256  0.25745865901256026  0.6160928971589937  1.0000
  H   H579      1.0  0.2772860511557902  0.3521094011807867  0.6019673923544833  1.0000
  H   H580      1.0  0.3168852069770889  0.3378292155497344  0.5964108758847844  1.0000
  C   C771      1.0  0.22207465720887581  0.1834515887262109  0.7164574758929287  1.0000
  C   C772      1.0  0.22021638966652082  0.15784714106031636  0.6889979468275567  1.0000
  H   H581      1.0  0.2297087872335709  0.160315754350158  0.7323052585130836  1.0000
  H   H582      1.0  0.19805919496699914  0.19510457093177705  0.7223249311476326  1.0000
  H   H583      1.0  0.23604089459972047  0.1729818467855413  0.6735398472301678  1.0000
  H   H584      1.0  0.1960515011961904  0.16038996428523383  0.6800493708850767  1.0000
  C   C773      1.0  0.3644759545327134  0.3217566044969957  0.10398842893735634  1.0000
  C   C774      1.0  0.38684998075725374  0.29032000251620804  0.08832620004669473  1.0000
  H   H585      1.0  0.35943419085236544  0.3523036100385639  0.09294909252817089  1.0000
  H   H586      1.0  0.37693329307175516  0.33255531774798264  0.12275398842900889  1.0000
  H   H587      1.0  0.3846297397968323  0.25570548761753925  0.0950707449650748  1.0000
  H   H588      1.0  0.41177941231226817  0.299435014622395  0.09358914184535641  1.0000
  C   C775      1.0  0.4601546013074817  0.10076275090089222  0.02121026521167848  1.0000
  C   C776      1.0  0.4613977626997738  0.11548322383895883  0.9915595563845475  1.0000
  H   H589      1.0  0.44665199807392664  0.125484190312885  0.03366094065150327  1.0000
  H   H590      1.0  0.48439201006613875  0.10177282714007434  0.029790156594795555  1.0000
  H   H591      1.0  0.45356202218401703  0.08898750822608197  0.9773411737611394  1.0000
  H   H592      1.0  0.4867408125426837  0.1212600536454309  0.9852499219485704  1.0000
  C   C777      1.0  0.275564152246281  0.17703627130761315  0.7932008023815853  1.0000
  C   C778      1.0  0.29888915931670906  0.1381862437107919  0.7896270254370478  1.0000
  H   H593      1.0  0.2510390737844439  0.16666388862371323  0.7874484348589937  1.0000
  H   H594      1.0  0.281000728953313  0.2031124243006112  0.778623022980704  1.0000
  H   H595      1.0  0.29159688413920937  0.11703767843454031  0.7721760908994  1.0000
  H   H596      1.0  0.29826188718118396  0.11743327755812012  0.8077745436164275  1.0000
  C   C779      1.0  0.4064101595036732  0.44567609308791634  0.1435650809277297  1.0000
  C   C780      1.0  0.4149232698921315  0.411757746059983  0.12107350563186851  1.0000
  H   H597      1.0  0.38679961889045567  0.4322811169661623  0.15583080836296714  1.0000
  H   H598      1.0  0.39648108761558143  0.4759968587512557  0.13411375331339098  1.0000
  H   H599      1.0  0.4224225306610359  0.3813837807940358  0.13079963044516293  1.0000
  H   H600      1.0  0.39343896046623983  0.4017567271961987  0.10997743298983477  1.0000
  C   C781      1.0  0.040234843420157235  0.6955658400853044  0.03388849130780234  1.0000
  C   C782      1.0  0.02895957497768899  0.6732595789871444  0.05992416302781412  1.0000
  H   H601      1.0  0.02031079956111818  0.6981457837275927  0.019515507497590144  1.0000
  H   H602      1.0  0.05707125156556791  0.6722880494054115  0.024213045478297703  1.0000
  H   H603      1.0  0.008208277730764473  0.6920878330123171  0.06922567468210501  1.0000
  H   H604      1.0  0.04763677519242407  0.6769980902733178  0.07518560393910247  1.0000
  C   C783      1.0  0.9905331874202885  0.2515370738548599  0.9035820519753226  1.0000
  C   C784      1.0  0.9963940000936388  0.27477284638832533  0.8760841603325797  1.0000
  H   H605      1.0  0.9973910706743355  0.21647581354866013  0.9021646556956247  1.0000
  H   H606      1.0  0.4705711616685316  0.23950036450819084  0.9046238988133911  1.0000
  H   H607      1.0  0.9943953292205757  0.3111104402992765  0.8804473987377466  1.0000
  H   H608      1.0  0.0212338563924593  0.27007091729709437  0.869267736058705  1.0000
  C   C785      1.0  0.444777952519285  0.4170255608590546  0.9138349555484079  1.0000
  C   C786      1.0  0.44817262875670366  0.4595791021963444  0.9319037294900266  1.0000
  H   H609      1.0  0.4689984694322268  0.40373762032131727  0.9087105228448847  1.0000
  H   H610      1.0  0.43552019387747914  0.4278271161768804  0.8942983082516034  1.0000
  H   H611      1.0  0.4241938993211399  0.47382254557650405  0.9350898424948176  1.0000
  H   H612      1.0  0.45919076090400507  0.48450569937618326  0.9188342051047211  1.0000
  C   C787      1.0  0.18182942606088254  0.2643122949397234  0.0013808387625465872  1.0000
  C   C788      1.0  0.1811864287918275  0.21895507626946342  0.9862271581300146  1.0000
  H   H613      1.0  0.2042591830965703  0.2823450421013656  0.9969273998425661  1.0000
  H   H614      1.0  0.1839118180815057  0.25869588633528723  0.023341811155377992  1.0000
  H   H615      1.0  0.19394964060298603  0.19502205152914096  0.9986606713641735  1.0000
  H   H616      1.0  0.1568708327851652  0.20466395310587723  0.9843675826690433  1.0000
  C   C789      1.0  0.19818852258283234  0.3552097753966879  0.5834463438164936  1.0000
  C   C790      1.0  0.20824432930502693  0.3722076293610423  0.5552458112829605  1.0000
  H   H617      1.0  0.21850392244216477  0.33479393086441134  0.5904364092300465  1.0000
  H   H618      1.0  0.17784263542814724  0.33156488000344536  0.5808821083817126  1.0000
  H   H619      1.0  0.22117683707634928  0.344981250483057  0.5442337324945384  1.0000
  H   H620      1.0  0.22589683776810576  0.39958107565892875  0.5572023027288682  1.0000
  C   C791      1.0  0.07266007322285739  0.6339066139540346  0.6634282794684485  1.0000
  C   C792      1.0  0.0858450736913994  0.6114753450013364  0.6373982611808913  1.0000
  H   H621      1.0  0.09192428071182744  0.6362327036874605  0.679397207069774  1.0000
  H   H622      1.0  0.05392881627721865  0.6130138004444126  0.6729644085696067  1.0000
  H   H623      1.0  0.09891252454502684  0.6339094204561709  0.6239531873539566  1.0000
  H   H624      1.0  0.06538842614215566  0.5996413159420959  0.6248738892108543  1.0000
  C   C793      1.0  0.035403923129428125  0.455173616022349  0.8500541420450226  1.0000
  C   C794      1.0  0.05839697248604623  0.4787045690019169  0.8702247814099541  1.0000
  H   H625      1.0  0.020167226607229954  0.48139481033674086  0.8412347874157914  1.0000
  H   H626      1.0  0.01853559978032099  0.43303135820896604  0.8605150111691178  1.0000
  H   H627      1.0  0.047081742808378506  0.5113462201143258  0.8762174198118675  1.0000
  H   H628      1.0  0.08146415652039227  0.486291010869974  0.8598951526821272  1.0000
  C   C795      1.0  0.2405775459327459  0.43657337295763865  0.8268629544829001  1.0000
  C   C796      1.0  0.24234741651024932  0.4402547858901865  0.8580618253004098  1.0000
  H   H629      1.0  0.2609758756040275  0.4158658913222393  0.8196750189334353  1.0000
  H   H630      1.0  0.24649570413841695  0.4693166622006606  0.8184736645368252  1.0000
  H   H631      1.0  0.2602646109577283  0.4657975673395432  0.8630085786982159  1.0000
  H   H632      1.0  0.21986458841191783  0.4542933387362832  0.8666045655559678  1.0000
  C   C797      1.0  0.07616257107439427  0.19715584477930728  0.7468769806649065  1.0000
  C   C798      1.0  0.04807166700109065  0.190635126178049  0.7266255779791946  1.0000
  H   H633      1.0  0.09642574769792972  0.17532106352483134  0.7406985866251977  1.0000
  H   H634      1.0  0.06866018641717699  0.18313330421649424  0.766488334033433  1.0000
  H   H635      1.0  0.0496255761979376  0.15617895815664679  0.7181070667198707  1.0000
  H   H636      1.0  0.051738336622008815  0.2099057663735922  0.7084174873092295  1.0000
  C   C799      1.0  0.2936603703912594  0.5085079589161581  0.7653394757953301  1.0000
  C   C800      1.0  0.28320584641893976  0.5341425837484219  0.7403714951760367  1.0000
  H   H637      1.0  0.27579500369614046  0.513235395701539  0.7817889451552997  1.0000
  H   H638      1.0  0.3147017437517422  0.5249210373904318  0.7741487350094639  1.0000
  H   H639      1.0  0.3038157498546435  0.535323390675595  0.726706341299975  1.0000
  H   H640      1.0  0.28104458093325074  0.5694093493510414  0.7465296983855503  1.0000
  C   C801      1.0  0.5839582942611864  0.23036535566380092  0.74984503270359  1.0000
  C   C802      1.0  0.6060128305731165  0.2366631559581969  0.7701933513742385  1.0000
  C   C803      1.0  0.6191949535234393  0.27782021501205595  0.7743910249718053  1.0000
  C   C804      1.0  0.609416640885888  0.3142926282458651  0.7601625469332997  1.0000
  C   C805      1.0  0.5859000675334854  0.307545591102265  0.7407692545308807  1.0000
  C   C806      1.0  0.5752852667772134  0.2659561329257272  0.7346049940723085  1.0000
  H   H641      1.0  0.6145855759925215  0.20934386337614283  0.7823320784875486  1.0000
  H   H642      1.0  0.6381396299714444  0.2794609543745795  0.7890899493538576  1.0000
  H   H643      1.0  0.5766101215070639  0.3348549775893495  0.7298036146519075  1.0000
  H   H644      1.0  0.5599527543965807  0.2620573000447289  0.7173438533384948  1.0000
  C   C807      1.0  0.6814060274410911  0.3433179555911757  0.776343478251674  1.0000
  C   C808      1.0  0.6561422149688652  0.3721283823726299  0.778792625954343  1.0000
  C   C809      1.0  0.6617461412982218  0.41348521538342603  0.7905658990411212  1.0000
  C   C810      1.0  0.6904340772708829  0.42360312873882683  0.8023028286335483  1.0000
  C   C811      1.0  0.7153092498226458  0.3940043722040034  0.8009803292557675  1.0000
  C   C812      1.0  0.7109428048625345  0.3542137100087279  0.7869355877720374  1.0000
  C   C813      1.0  0.621649207777581  0.3629727914749882  0.7668759979731793  1.0000
  C   C814      1.0  0.5974475512369611  0.37547348147909554  0.7902670747542333  1.0000
  C   C815      1.0  0.5745888444495454  0.40854622705735477  0.7884196137913794  1.0000
  C   C816      1.0  0.5601974118542231  0.425537031944302  0.8115280189497017  1.0000
  C   C817      1.0  0.5640920449890106  0.40495605458284123  0.8356298129536243  1.0000
  C   C818      1.0  0.5837575009350857  0.3686225213041818  0.8369139497540343  1.0000
  C   C819      1.0  0.6013942501816684  0.3556296756382876  0.8149745936640097  1.0000
  C   C820      1.0  0.6424187862191184  0.3666602484967132  0.7184886734105584  1.0000
  C   C821      1.0  0.6526499330522351  0.3880642708966918  0.6963373136034852  1.0000
  C   C822      1.0  0.644826366885464  0.4313916888657135  0.6924404833758259  1.0000
  C   C823      1.0  0.6274048189715838  0.4532195758600972  0.7128594699521572  1.0000
  C   C824      1.0  0.6168180385786782  0.4319316182556602  0.7350794785818939  1.0000
  C   C825      1.0  0.6249493010662462  0.3883550886792191  0.7392468659341681  1.0000
  C   C826      1.0  0.660988371483481  0.4569193835757778  0.6678722811943959  1.0000
  C   C827      1.0  0.7460833373085883  0.5070994632605389  0.7096026890416832  1.0000
  C   C828      1.0  0.7465140927029629  0.465410687572567  0.6981019921625393  1.0000
  C   C829      1.0  0.7195691269139898  0.44836012562578254  0.6861591161021219  1.0000
  C   C830      1.0  0.6926126962613596  0.47521288546228174  0.6827771520444382  1.0000
  C   C831      1.0  0.6927237605014248  0.5164984157450407  0.69590321075429  1.0000
  C   C832      1.0  0.7185926781110337  0.5317571543660614  0.7094290479020053  1.0000
  C   C833      1.0  0.6384698154425344  0.4934716031709615  0.6558950807226467  1.0000
  C   C834      1.0  0.6058811882379961  0.49155993046261415  0.6567754009191542  1.0000
  C   C835      1.0  0.586671101384584  0.5250087687250152  0.6482266034145376  1.0000
  C   C836      1.0  0.6002863580748855  0.562460389454609  0.6382705050453208  1.0000
  C   C837      1.0  0.6331925206998831  0.5643558072476447  0.6357325176897933  1.0000
  C   C838      1.0  0.6520107966220445  0.5290507386702986  0.6431304378732877  1.0000
  C   C839      1.0  0.6989842956991594  0.42705426838681315  0.628243738770421  1.0000
  C   C840      1.0  0.7077535060651852  0.3949775758064958  0.609650003243729  1.0000
  C   C841      1.0  0.6874230048893735  0.3603250489773774  0.6037118800833422  1.0000
  C   C842      1.0  0.6577564442307927  0.36025832830147175  0.6153074738644033  1.0000
  C   C843      1.0  0.6485055914329637  0.39373961587035855  0.633356056975827  1.0000
  C   C844      1.0  0.6700940735494133  0.42563619857647744  0.642288480254151  1.0000
  H   H645      1.0  0.6781797373450672  0.3117738533410629  0.7659310671200474  1.0000
  H   H646      1.0  0.6429522686981508  0.43788476509367136  0.791167585780936  1.0000
  H   H647      1.0  0.6936461908765671  0.45576393964513523  0.8117662707460042  1.0000
  H   H648      1.0  0.7302782048394771  0.33060039139150554  0.785031592484637  1.0000
  H   H649      1.0  0.5681110958747022  0.42292167534368846  0.769466481487214  1.0000
  H   H650      1.0  0.5460086818261852  0.455482851566461  0.8106052980097843  1.0000
  H   H651      1.0  0.5877685771597754  0.35363609028081416  0.8561659063450874  1.0000
  H   H652      1.0  0.6199208842893561  0.3316429670598364  0.8181708020838984  1.0000
  H   H653      1.0  0.6513125094122469  0.33330072461503757  0.7212548171472908  1.0000
  H   H654      1.0  0.6691613654553656  0.3699355211476625  0.6830739572483066  1.0000
  H   H655      1.0  0.6250131043976688  0.48896533220045063  0.7121790389745815  1.0000
  H   H656      1.0  0.6058814843865109  0.4535913688322892  0.7500408837564827  1.0000
  H   H657      1.0  0.7684072111369669  0.44639947725159024  0.6984997515173833  1.0000
  H   H658      1.0  0.7201325580004093  0.41439434831585303  0.67841997088833  1.0000
  H   H659      1.0  0.6718616511629183  0.5377820261611167  0.6959254206675046  1.0000
  H   H660      1.0  0.7186971044665056  0.5649509574186683  0.718088894972695  1.0000
  H   H661      1.0  0.595795563353847  0.4626760086111266  0.6653363129218879  1.0000
  H   H662      1.0  0.5611414327532752  0.5223981844139369  0.6504455756529821  1.0000
  H   H663      1.0  0.6439866877211627  0.5937699729075478  0.6275774413739817  1.0000
  H   H664      1.0  0.677413958527752  0.5300795298934805  0.6389792031851697  1.0000
  H   H665      1.0  0.7154895597966175  0.4533031596963998  0.6324878512774366  1.0000
  H   H666      1.0  0.7303645073247491  0.3983756045577712  0.5994819011574631  1.0000
  H   H667      1.0  0.6407679409978557  0.33570932124622455  0.6096318314965533  1.0000
  H   H668      1.0  0.6247169136587716  0.39240003422210873  0.6419674460540484  1.0000
  C   C845      1.0  0.6551023440866691  0.25087255753268034  0.9987939308434614  1.0000
  C   C846      1.0  0.6626795425945732  0.2928022679315683  0.9903844500671911  1.0000
  C   C847      1.0  0.6389197430886566  0.3210658713186929  0.9824958927099552  1.0000
  C   C848      1.0  0.607242961554248  0.3090255140566978  0.9842868193482629  1.0000
  C   C849      1.0  0.5999905043047011  0.26994299112419434  0.9968879164730413  1.0000
  C   C850      1.0  0.6235022641745753  0.2407378309045426  0.0030358124648184465  1.0000
  H   H669      1.0  0.6871949501431898  0.3033087647742954  0.9889327293761615  1.0000
  H   H670      1.0  0.6450036473416918  0.35345073578939507  0.975295842662373  1.0000
  H   H671      1.0  0.575379013766597  0.2605946103846575  0.9999649989947786  1.0000
  H   H672      1.0  0.6163513142199596  0.20935330197339239  0.011024375004010848  1.0000
  C   C851      1.0  0.5683363752963662  0.2756884294943948  0.9373350628125157  1.0000
  C   C852      1.0  0.5556123189213314  0.3050924854350652  0.9565728858224323  1.0000
  C   C853      1.0  0.5230364317318962  0.3063922739230413  0.9595167088648816  1.0000
  C   C854      1.0  0.5038697318499368  0.2824451656971836  0.9424978580934095  1.0000
  C   C855      1.0  0.5166270253859708  0.25700421230270587  0.9219940700302585  1.0000
  C   C856      1.0  0.5489128409912377  0.2514836536758359  0.9202899639617897  1.0000
  C   C857      1.0  0.57878471906207  0.3370392893777398  0.9734564580315971  1.0000
  C   C858      1.0  0.583159412613415  0.3716844038328975  0.9501441254883038  1.0000
  C   C859      1.0  0.559592922241901  0.4037497935419544  0.9466955316909763  1.0000
  C   C860      1.0  0.560465654634847  0.43164311073321965  0.9256062095521667  1.0000
  C   C861      1.0  0.583235869810634  0.4270833204429065  0.905726318142045  1.0000
  C   C862      1.0  0.6072313044650074  0.396433547376444  0.9087145610109238  1.0000
  C   C863      1.0  0.605995373019599  0.367915569102224  0.9297473488251871  1.0000
  C   C864      1.0  0.5428268047447778  0.34889800202075233  0.015845702964644725  1.0000
  C   C865      1.0  0.5259151285101828  0.3791276143759675  0.03167658585992623  1.0000
  C   C866      1.0  0.534218679285792  0.4238549649420945  0.032567809104739116  1.0000
  C   C867      1.0  0.5630671694450744  0.4349054367506787  0.021218139635454582  1.0000
  C   C868      1.0  0.5801895163214195  0.40463559387403103  0.006349369989801054  1.0000
  C   C869      1.0  0.5677488978246269  0.36307258332060277  0.0001588309646518571  1.0000
  C   C870      1.0  0.5097655100225499  0.4624012842264249  0.03967477942512171  1.0000
  C   C871      1.0  0.9437425914689013  0.47417245530406066  0.9624504364922336  1.0000
  C   C872      1.0  0.9359567397292654  0.4480202372983291  0.9833237167479554  1.0000
  C   C873      1.0  0.9516242871528199  0.45138432643586146  0.0074057542256100745  1.0000
  C   C874      1.0  0.9756365156682536  0.482097062625309  0.011490682227367297  1.0000
  C   C875      1.0  0.5039266161479938  0.487800124635505  0.9898675648141958  1.0000
  C   C876      1.0  0.9678116619783267  0.5046981205816368  0.9656062632517318  1.0000
  C   C877      1.0  0.5234116693452651  0.510541276085844  0.05012353405109969  1.0000
  C   C878      1.0  0.550822787574535  0.5133105351913974  0.06592608921161744  1.0000
  C   C879      1.0  0.5626267627831246  0.553730385089982  0.07406016706402611  1.0000
  C   C880      1.0  0.5480329377278718  0.5927559172895317  0.06725868400449579  1.0000
  C   C881      1.0  0.5206694292971008  0.5906518119374041  0.05197785989622011  1.0000
  C   C882      1.0  0.5082122785951138  0.5502606621302716  0.043750298500008  1.0000
  C   C883      1.0  0.9463946596242538  0.4831631912254969  0.06811437138816526  1.0000
  C   C884      1.0  0.9282392761958003  0.46274396252411015  0.08699784532815734  1.0000
  C   C885      1.0  0.9416180149209702  0.4316708852722629  0.10332960214808935  1.0000
  C   C886      1.0  0.973865271529965  0.4261400538626128  0.1033041617020435  1.0000
  C   C887      1.0  0.9917573248748341  0.4468736589107655  0.08461310637381095  1.0000
  C   C888      1.0  0.9778000233271407  0.4712671968203591  0.06448991545983808  1.0000
  H   H673      1.0  0.5938389922146073  0.27288569675139307  0.934752655630559  1.0000
  H   H674      1.0  0.5113548251885148  0.32941720770531624  0.9732545497296458  1.0000
  H   H675      1.0  0.9704264443198105  0.3134077771908452  0.9429158082784487  1.0000
  H   H676      1.0  0.5575766832219445  0.22996905935360384  0.904056536484908  1.0000
  H   H677      1.0  0.5387655421124701  0.40529170342372073  0.9596540065102086  1.0000
  H   H678      1.0  0.5405565162027886  0.4539878699894319  0.9231247565211855  1.0000
  H   H679      1.0  0.6240052591278265  0.3882543167802669  0.8925699731869006  1.0000
  H   H680      1.0  0.6226298984673798  0.3401900248986818  0.929167871998587  1.0000
  H   H681      1.0  0.5350331900259685  0.31492470735590594  0.014094451307670425  1.0000
  H   H682      1.0  0.5037549588270037  0.3687528605777602  0.040231642521903296  1.0000
  H   H683      1.0  0.5711980302340779  0.46890576267606116  0.02087126117270231  1.0000
  H   H684      1.0  0.6004796624490473  0.41803255904643233  0.995716848321724  1.0000
  H   H685      1.0  0.9185996016107911  0.422567076549046  0.9812218513246427  1.0000
  H   H686      1.0  0.9453814501730693  0.4279185145849094  0.022790399582749084  1.0000
  H   H687      1.0  0.5235772787387171  0.5099896278006951  0.9937805477060114  1.0000
  H   H688      1.0  0.9744786664274071  0.5244281034614882  0.9485409735708108  1.0000
  H   H689      1.0  0.5636124786201954  0.4842540011879417  0.07240371135481793  1.0000
  H   H690      1.0  0.5838563403716577  0.5557795669057188  0.08625058270263572  1.0000
  H   H691      1.0  0.9742980846599207  0.6378757254977971  0.04278679208309656  1.0000
  H   H692      1.0  0.9604565483533801  0.5618715505124698  0.0362116482300536  1.0000
  H   H693      1.0  0.9340303161447562  0.5041318167088379  0.05405993830594156  1.0000
  H   H694      1.0  0.9026680660932712  0.46854333347776583  0.08785252317031705  1.0000
  H   H695      1.0  0.9852025838599803  0.40407417653377325  0.11716536853929982  1.0000
  H   H696      1.0  0.5182915239350064  0.41550070877700446  0.08746162869773941  1.0000
  C   C889      1.0  0.910050741892481  0.3859364443798184  0.9261554001334741  1.0000
  C   C890      1.0  0.9197531347369091  0.34629809246663384  0.9148444970581642  1.0000
  C   C891      1.0  0.9080986139539683  0.30701059599414815  0.9239990194686346  1.0000
  C   C892      1.0  0.8860272948044713  0.3067637747224986  0.9448056699847124  1.0000
  C   C893      1.0  0.8715389560311456  0.34712318544054394  0.9513777852132261  1.0000
  C   C894      1.0  0.8848282414549151  0.38585267208326524  0.9434771133578731  1.0000
  H   H697      1.0  0.9360602756591114  0.34523656573671463  0.8982738827170238  1.0000
  H   H698      1.0  0.9153193994873557  0.27613499235859207  0.9142892492277982  1.0000
  H   H699      1.0  0.851244673264638  0.3498941153589089  0.9645866263268779  1.0000
  H   H700      1.0  0.8756127380670466  0.4160893552966288  0.9521733039229142  1.0000
  C   C895      1.0  0.8953999483797236  0.30185731184279985  0.005105917712234186  1.0000
  C   C896      1.0  0.8747649774399053  0.2721771335158302  0.9919997164828012  1.0000
  C   C897      1.0  0.8552162049499867  0.24644576856181438  0.007374720919600165  1.0000
  C   C898      1.0  0.8572548291778794  0.24823590149284186  0.03454671237216347  1.0000
  C   C899      1.0  0.8768027272218499  0.27811931569851034  0.047584739062364476  1.0000
  C   C900      1.0  0.8947741783058392  0.3068253652593765  0.03279394640292453  1.0000
  C   C901      1.0  0.8765319312962933  0.2632548760630257  0.9604717351331111  1.0000
  C   C902      1.0  0.90195905604989  0.22346203966204245  0.9615014674730625  1.0000
  C   C903      1.0  0.8916941077638162  0.1799670904367198  0.959821590400828  1.0000
  C   C904      1.0  0.912356687193771  0.14558939087892722  0.9636941916322533  1.0000
  C   C905      1.0  0.9426649512716909  0.15308862581769994  0.9725842141671676  1.0000
  C   C906      1.0  0.9539080200301482  0.19563494146606286  0.9724065348614505  1.0000
  C   C907      1.0  0.9341444971653154  0.23034923537415877  0.9665067742784345  1.0000
  C   C908      1.0  0.8155270516700839  0.2681557047628312  0.9541075854556073  1.0000
  C   C909      1.0  0.7898858394547175  0.26446020251855473  0.9376924405069693  1.0000
  C   C910      1.0  0.7917440660173061  0.24393654793048386  0.9122439181290318  1.0000
  C   C911      1.0  0.8208783081693061  0.2267339027082595  0.9041817196321178  1.0000
  C   C912      1.0  0.8473807380508958  0.2328374552080608  0.9197125062182092  1.0000
  C   C913      1.0  0.8450414716963297  0.2532923291952505  0.9449227767998442  1.0000
  C   C914      1.0  0.7610972012028958  0.24167893878283336  0.8931292591833055  1.0000
  C   C915      1.0  0.6949595786316217  0.19032152638761637  0.9533524484063095  1.0000
  C   C916      1.0  0.6842285994027723  0.2236129693213228  0.9373512154766717  1.0000
  C   C917      1.0  0.7032261167918827  0.2398243953359339  0.9170170303871598  1.0000
  C   C918      1.0  0.7333734933999507  0.22082691582030492  0.9115776207325926  1.0000
  C   C919      1.0  0.7409194235826619  0.18285788870976027  0.9255577515596983  1.0000
  C   C920      1.0  0.7225309342764139  0.1679938989820395  0.9461907609360981  1.0000
  C   C921      1.0  0.7669216797809995  0.21350506037905015  0.8649206503176943  1.0000
  C   C922      1.0  0.7876375301693946  0.23028413106525433  0.8455939876549191  1.0000
  C   C923      1.0  0.7950803925555524  0.20703966910664948  0.8220434033153236  1.0000
  C   C924      1.0  0.7802801090667331  0.16772341743893238  0.8162466159663028  1.0000
  C   C925      1.0  0.7601070952590627  0.14981582899436863  0.8347817980854288  1.0000
  C   C926      1.0  0.7542109858195792  0.1717908105510024  0.8590531950629905  1.0000
  C   C927      1.0  0.7281166907928555  0.2992840842007173  0.8685065417603487  1.0000
  C   C928      1.0  0.7221959548380258  0.3407344710691299  0.8585989013836002  1.0000
  C   C929      1.0  0.7434738816142815  0.37446797570453516  0.8624593881169084  1.0000
  C   C930      1.0  0.769201876561274  0.36812031395113665  0.8783273615672583  1.0000
  C   C931      1.0  0.7748874296223767  0.3277185527386021  0.8890830168122021  1.0000
  C   C932      1.0  0.7541183076189909  0.29177020129045406  0.8849378393731426  1.0000
  H   H701      1.0  0.9117733633863044  0.3207461629978191  0.9935180669134748  1.0000
  H   H702      1.0  0.840092678412291  0.22094038427192975  0.998753549183071  1.0000
  H   H703      1.0  0.8438837291176384  0.22436708220776527  0.04599228828487485  1.0000
  H   H704      1.0  0.9126062065378203  0.3266464518903891  0.042602247895113105  1.0000
  H   H705      1.0  0.8670200437095931  0.17210377689762965  0.9554704664937783  1.0000
  H   H706      1.0  0.9044405269388451  0.11229500250879236  0.9601305101028135  1.0000
  H   H707      1.0  0.9781698535380909  0.20352300604319026  0.9780034329915396  1.0000
  H   H708      1.0  0.9439416310843143  0.26335717054141056  0.9677222622561811  1.0000
  H   H709      1.0  0.8126425811696601  0.2842442053499958  0.973684614412802  1.0000
  H   H710      1.0  0.7674679404554389  0.27991744544846275  0.9438970826259317  1.0000
  H   H711      1.0  0.8245534799141632  0.20947999479776572  0.8853376178110063  1.0000
  H   H712      1.0  0.8698378482702583  0.22253981590009267  0.9112505292834316  1.0000
  H   H713      1.0  0.6611239858603332  0.23902982700128875  0.940817981021175  1.0000
  H   H714      1.0  0.6945662919931798  0.2677357811997732  0.90620282173465  1.0000
  H   H715      1.0  0.7625466044459043  0.16493170467834853  0.9209340514450143  1.0000
  H   H716      1.0  0.7301155865762406  0.13907979858552766  0.956950454347081  1.0000
  H   H717      1.0  0.7998022126178882  0.260513179730859  0.8507042867773057  1.0000
  H   H718      1.0  0.8114945764558508  0.22211015384208674  0.8083358486958521  1.0000
  H   H719      1.0  0.7489199581207142  0.1175923415277738  0.8310545708314084  1.0000
  H   H720      1.0  0.7388247148155325  0.15525911371430692  0.8732110051958133  1.0000
  H   H721      1.0  0.7131676968512651  0.2714250518879626  0.8626390865056449  1.0000
  H   H722      1.0  0.7009472779195863  0.3448014098714449  0.8462845140475924  1.0000
  H   H723      1.0  0.7865466186982918  0.39409833312467757  0.8813882914248395  1.0000
  H   H724      1.0  0.7970492191363105  0.3256977789248947  0.8999376071251022  1.0000
  C   C933      1.0  0.8057717313589382  0.46724902937145313  0.7443773558867498  1.0000
  C   C934      1.0  0.7869762882613585  0.436363078078573  0.7560214076602794  1.0000
  C   C935      1.0  0.7928401645066877  0.3918158100608373  0.7530695082857518  1.0000
  C   C936      1.0  0.8173380921135385  0.3771907440668579  0.7365635046012358  1.0000
  C   C937      1.0  0.8386251022115871  0.4085707963526302  0.7269970892547849  1.0000
  C   C938      1.0  0.8322188152608079  0.4532029418560071  0.7305446181200687  1.0000
  H   H725      1.0  0.7653755601163607  0.44743291625446024  0.765953277033262  1.0000
  H   H726      1.0  0.7766615676562652  0.3691449417247113  0.7621876872018709  1.0000
  H   H727      1.0  0.857662602879884  0.39806991175248563  0.7135641299259672  1.0000
  H   H728      1.0  0.8478965586009745  0.4769238502324874  0.7214648017813202  1.0000
  C   C939      1.0  0.796710646397521  0.35517426898949905  0.680893347587233  1.0000
  C   C940      1.0  0.8178049933287166  0.3270207777444976  0.6942677535084848  1.0000
  C   C941      1.0  0.834654059530223  0.2958860501331026  0.6786683180997299  1.0000
  C   C942      1.0  0.8301165161826003  0.2922776969383627  0.6514106973363092  1.0000
  C   C943      1.0  0.8068456671070325  0.3174791187043941  0.6392255313135502  1.0000
  C   C944      1.0  0.7908949813458357  0.349362906774833  0.6540355052616755  1.0000
  C   C945      1.0  0.8200190851453184  0.32764260567032666  0.7265024139150043  1.0000
  C   C946      1.0  0.7919943792481524  0.2933189899683458  0.7317278007695031  1.0000
  C   C947      1.0  0.8005525294969511  0.2488471807771162  0.7314148429014785  1.0000
  C   C948      1.0  0.7783187870654645  0.2160802474622983  0.7274634974322923  1.0000
  C   C949      1.0  0.7465932474928235  0.22667890207936553  0.7248245559257892  1.0000
  C   C950      1.0  0.737297765825071  0.27059124484272734  0.7262984865300335  1.0000
  C   C951      1.0  0.7598036414717065  0.3032110686481844  0.7288384929685803  1.0000
  C   C952      1.0  0.8807157321790261  0.30609752110414473  0.7298561108104148  1.0000
  C   C953      1.0  0.9045213738735449  0.28256477953422954  0.7420796394105444  1.0000
  C   C954      1.0  0.9011786601207739  0.26728232411272634  0.7680147607961844  1.0000
  C   C955      1.0  0.8739031894016303  0.28074024241444573  0.7819020138043925  1.0000
  C   C956      1.0  0.8498340096187552  0.3030633380295444  0.7693130311777311  1.0000
  C   C957      1.0  0.8516882527272607  0.3124976538191729  0.7421624218143443  1.0000
  C   C958      1.0  0.9240660336301196  0.2301469580918091  0.779832453709392  1.0000
  C   C959      1.0  0.5073694943537761  0.19417927788319664  0.7369006914654944  1.0000
  C   C960      1.0  0.49763544270892945  0.23729962142074662  0.7394245452398852  1.0000
  C   C961      1.0  0.9754421237647122  0.25188733809368474  0.7550663813920498  1.0000
  C   C962      1.0  0.9546623886082458  0.21827210588943544  0.7610307526316901  1.0000
  C   C963      1.0  0.9644078509379791  0.1749165913207823  0.7548866830033132  1.0000
  C   C964      1.0  0.9941092724128382  0.16575684691900675  0.7441108369281741  1.0000
  C   C965      1.0  0.8991204257530482  0.19073964985653885  0.7816476093439338  1.0000
  C   C966      1.0  0.8865288390374159  0.1769519149193633  0.8058564147478906  1.0000
  C   C967      1.0  0.859676398074832  0.15059487954556058  0.805933139902632  1.0000
  C   C968      1.0  0.8460233707803608  0.1367524594178199  0.7822654487479047  1.0000
  C   C969      1.0  0.8588721987421679  0.1484524532436793  0.7583211432195042  1.0000
  C   C970      1.0  0.8856366006153881  0.17377842757418835  0.7581798074081383  1.0000
  C   C971      1.0  0.957111030736127  0.2105708622712544  0.82011114086565  1.0000
  C   C972      1.0  0.9752378662132919  0.22016191979174166  0.842048477872655  1.0000
  C   C973      1.0  0.9746123272805141  0.2630036275584963  0.8529091254346136  1.0000
  C   C974      1.0  0.9572853828967761  0.29593731715561794  0.8410449936119572  1.0000
  C   C975      1.0  0.9404780376060956  0.28648939845057336  0.8182858898160105  1.0000
  C   C976      1.0  0.9395971908259799  0.24324954006696492  0.8077422382881154  1.0000
  H   H729      1.0  0.7812887585387919  0.37802604997775124  0.6917459188171133  1.0000
  H   H730      1.0  0.8505506953404915  0.2721077741845806  0.6873947949100636  1.0000
  H   H731      1.0  0.8435727561203914  0.2673109028799707  0.6399402867024577  1.0000
  H   H732      1.0  0.7722117498352867  0.3690305298578267  0.6451475018097809  1.0000
  H   H733      1.0  0.825085175217045  0.23850426646713502  0.7321740181168154  1.0000
  H   H734      1.0  0.7857180312236263  0.181970098737892  0.7267972000358531  1.0000
  H   H735      1.0  0.7130540065716751  0.28094565882326084  0.7238654914915207  1.0000
  H   H736      1.0  0.7520385755347213  0.3369461420053953  0.7263994406810091  1.0000
  H   H737      1.0  0.8840302265307582  0.31644340321010495  0.7092533876793076  1.0000
  H   H738      1.0  0.9241181616032557  0.27302699893510335  0.7292948057309903  1.0000
  H   H739      1.0  0.8702037838296024  0.2718084379252148  0.8025531949279678  1.0000
  H   H740      1.0  0.827916593721398  0.3098653312462843  0.7807834418115824  1.0000
  H   H741      1.0  0.5120359048347798  0.26419427185481126  0.7325697583886398  1.0000
  H   H742      1.0  0.9693454997337125  0.28592290217503613  0.7595830701066996  1.0000
  H   H743      1.0  0.9501180714578242  0.14664998429503293  0.7602433102540803  1.0000
  H   H744      1.0  0.0012174545348881457  0.13160654137264466  0.7403230371835684  1.0000
  H   H745      1.0  0.8942404077506371  0.18984223125047642  0.8252497071503097  1.0000
  H   H746      1.0  0.8473930551687868  0.1436581350647712  0.8242987190481192  1.0000
  H   H747      1.0  0.8485763157548805  0.13704248674376182  0.7395921291305048  1.0000
  H   H748      1.0  0.8940064127239827  0.18566085737117446  0.7391459117831924  1.0000
  H   H749      1.0  0.9564943895131779  0.17653513164065052  0.8124143963952677  1.0000
  H   H750      1.0  0.988942430993484  0.1944927154788084  0.8512151147812423  1.0000
  H   H751      1.0  0.9578090869573848  0.32950424141985035  0.8493777492334859  1.0000
  H   H752      1.0  0.9293213035783482  0.31410874948217854  0.8082873907033838  1.0000
  C   C977      1.0  0.862757039650618  0.9427582039331781  0.7080782813619513  1.0000
  C   C978      1.0  0.853971707299465  0.9856360253402449  0.7153106367378457  1.0000
  C   C979      1.0  0.8220453815554319  0.9980554744960898  0.7160778882852604  1.0000
  C   C980      1.0  0.7980635232660753  0.9680183036374796  0.7085709376187124  1.0000
  C   C981      1.0  0.8079611201561141  0.9241581816283048  0.703410161420838  1.0000
  C   C982      1.0  0.8395268117291113  0.9123021677930337  0.7022168833563062  1.0000
  H   H753      1.0  0.8715880307361487  0.01116492187857454  0.7191347799768026  1.0000
  H   H754      1.0  0.8161011754839922  0.030890827264897065  0.723922025816067  1.0000
  H   H755      1.0  0.7906144570830018  0.8982436215497138  0.699983777536725  1.0000
  H   H756      1.0  0.8460630616295198  0.8783332678050078  0.6970480308263537  1.0000
  C   C983      1.0  0.7474463587134964  0.9434950621038563  0.6644620499744389  1.0000
  C   C984      1.0  0.7392965340254494  0.9506408229170841  0.6916651554963329  1.0000
  C   C985      1.0  0.7104814036997068  0.9332662808989436  0.7006218077708911  1.0000
  C   C986      1.0  0.6921088678310142  0.906892640887169  0.6840592697618287  1.0000
  C   C987      1.0  0.7012331085444979  0.8984098391190669  0.6577526371005984  1.0000
  C   C988      1.0  0.7288636357798469  0.9172154259306449  0.6479923897842742  1.0000
  C   C989      1.0  0.7614233013867295  0.9815070463805405  0.710888844925113  1.0000
  C   C990      1.0  0.7495421724673179  0.029541530084553923  0.7016798072731157  1.0000
  C   C991      1.0  0.719637434146444  0.04500664377526897  0.7096047081247029  1.0000
  C   C992      1.0  0.7104276206462177  0.08783460811356232  0.7056150000781458  1.0000
  C   C993      1.0  0.7309495739358389  0.11685313586446078  0.6935570362856163  1.0000
  C   C994      1.0  0.7602949635843567  0.10175919128877842  0.6845519260185898  1.0000
  C   C995      1.0  0.7693062520082247  0.05833672569605282  0.6883437639292347  1.0000
  C   C996      1.0  0.7520099826517715  0.9374268120439742  0.7551552210449083  1.0000
  C   C997      1.0  0.7497280294614422  0.9360342028886826  0.7828408874084659  1.0000
  C   C998      1.0  0.7519221514220414  0.9745442100044851  0.79889865466265  1.0000
  C   C999      1.0  0.756385726085305  0.014395612898302712  0.7862692903755982  1.0000
  C   C1000     1.0  0.7584622419654183  0.015568925386945542  0.7591307955103287  1.0000
  C   C1001     1.0  0.7561554787513631  0.9776275393265382  0.7426167154937348  1.0000
  C   C1002     1.0  0.746201100828892  0.9747621971962009  0.8306446969784474  1.0000
  C   C1003     1.0  0.6459978073808506  0.013303882082004836  0.8406371388420155  1.0000
  C   C1004     1.0  0.6533716493850149  0.9690713106027031  0.8367746330256879  1.0000
  C   C1005     1.0  0.6844237476508006  0.9564438941916025  0.8315896278315794  1.0000
  C   C1006     1.0  0.7090534685054974  0.9870749483677393  0.8315391507560915  1.0000
  C   C1007     1.0  0.6996668987531042  0.03142109517277394  0.8313816622805696  1.0000
  C   C1008     1.0  0.6693604797314479  0.04472662392770382  0.8373642052673855  1.0000
  C   C1009     1.0  0.7654092384202624  0.011853697633250171  0.8483924367199638  1.0000
  C   C1010     1.0  0.793743716771099  0.02911253451722527  0.8391430174075762  1.0000
  C   C1011     1.0  0.8106123241509986  0.05963317431127671  0.8538055982952771  1.0000
  C   C1012     1.0  0.7999784441567986  0.07418574057346389  0.8788906857297024  1.0000
  C   C1013     1.0  0.7718580927623946  0.057925189578350356  0.8885237308157973  1.0000
  C   C1014     1.0  0.7553958227776741  0.025989414383922778  0.8738328827658232  1.0000
  C   C1015     1.0  0.7414225482459191  0.9036279383024934  0.8593116376894882  1.0000
  C   C1016     1.0  0.755137834479711  0.8698391974996585  0.8735845355544231  1.0000
  C   C1017     1.0  0.7881254650431969  0.8650445061582742  0.8745940770641795  1.0000
  C   C1018     1.0  0.8065749248294862  0.8880168850557094  0.8572844783378974  1.0000
  C   C1019     1.0  0.792577083997698  0.9200971829171051  0.8418990657292109  1.0000
  C   C1020     1.0  0.7604612955150252  0.9308671545838848  0.8442432211148653  1.0000
  H   H757      1.0  0.7682640502734156  0.9582425532159432  0.6555074167829004  1.0000
  H   H758      1.0  0.7029479159852863  0.9407684300086425  0.7209196493660518  1.0000
  H   H759      1.0  0.6709083221088605  0.8931763020706017  0.6923799108852404  1.0000
  H   H760      1.0  0.7362703914070601  0.9111133613278191  0.6273533231588159  1.0000
  H   H761      1.0  0.7035368680109689  0.022850213018081822  0.7197990582902222  1.0000
  H   H762      1.0  0.6881821833659986  0.10028925566895619  0.7141718739148405  1.0000
  H   H763      1.0  0.7756947775715318  0.12469777490056748  0.6745534269059632  1.0000
  H   H764      1.0  0.792108520769135  0.047484238097042636  0.6809922826551891  1.0000
  H   H765      1.0  0.7509280429135817  0.9063457243633515  0.7435071311053398  1.0000
  H   H766      1.0  0.7461788572245258  0.904650215099367  0.792671802630473  1.0000
  H   H767      1.0  0.7569574807688698  0.0459676143431628  0.797315693575352  1.0000
  H   H768      1.0  0.7629312698836165  0.04798978614255488  0.7510403298511416  1.0000
  H   H769      1.0  0.6348934248104291  0.944403767951929  0.8381294377317808  1.0000
  H   H770      1.0  0.6888394023541535  0.921419007434169  0.8285468697211739  1.0000
  H   H771      1.0  0.7164624804186462  0.05763444702393543  0.8289103046646862  1.0000
  H   H772      1.0  0.6634638748472755  0.07944363080245666  0.8396477881624543  1.0000
  H   H773      1.0  0.8036157699906361  0.017895716333534484  0.8199193279787962  1.0000
  H   H774      1.0  0.8319379827732325  0.07225703024394342  0.8449357665905579  1.0000
  H   H775      1.0  0.7639197735455097  0.06858166034375558  0.9083309352372163  1.0000
  H   H776      1.0  0.7338987193543869  0.013541014803349016  0.8822161154628396  1.0000
  H   H777      1.0  0.7161570848906418  0.9086243252845129  0.8623806438791474  1.0000
  H   H778      1.0  0.7403695692397224  0.8507760160871493  0.8867671285888212  1.0000
  H   H779      1.0  0.8322008469606981  0.8827783743412737  0.8571290089453949  1.0000
  H   H780      1.0  0.8069178481933568  0.9402563220123819  0.8290213542307593  1.0000
  C   C1021     1.0  0.8202115789519817  0.8578037938947753  0.016583536472465233  1.0000
  C   C1022     1.0  0.8334998504681309  0.8912830224374307  0.03232107715975467  1.0000
  C   C1023     1.0  0.8622106593325051  0.9100288685650288  0.02533444418733503  1.0000
  C   C1024     1.0  0.8795133039106209  0.8920869285576484  0.0034927511429643553  1.0000
  C   C1025     1.0  0.8659838756262013  0.8557254450219376  0.9894920153725665  1.0000
  C   C1026     1.0  0.8361556842100863  0.8410140225272345  0.9945538565024847  1.0000
  H   H781      1.0  0.8212522921158917  0.9049945455907216  0.04983944907025426  1.0000
  H   H782      1.0  0.8718306189395354  0.9357155678750995  0.03876962450747418  1.0000
  H   H783      1.0  0.8789126595010601  0.8380501378707076  0.9737108624920556  1.0000
  H   H784      1.0  0.8261915445795207  0.8152787536230841  0.9816983549172477  1.0000
  C   C1027     1.0  0.9369132229176415  0.8869993869276941  0.04422437919298957  1.0000
  C   C1028     1.0  0.9336469978485451  0.875221163620214  0.01684527020428466  1.0000
  C   C1029     1.0  0.9375477716536667  0.8309770277499052  0.00975859166824817  1.0000
  C   C1030     1.0  0.9373548820076002  0.7991463156027793  0.029114167599862722  1.0000
  C   C1031     1.0  0.9335107739495396  0.8118944125768514  0.05554901203283214  1.0000
  C   C1032     1.0  0.9366846791742751  0.855212384457135  0.06345352014592223  1.0000
  C   C1033     1.0  0.9155514403602795  0.9067855403164677  0.9978126564959782  1.0000
  C   C1034     1.0  0.9248361190892869  0.9581393738462539  0.002499281534043349  1.0000
  C   C1035     1.0  0.9047291086952102  0.9927351092955451  0.9957330009858801  1.0000
  C   C1036     1.0  0.9142713534379487  0.03689085998025935  0.9981841677715685  1.0000
  C   C1037     1.0  0.9452007736002771  0.046955054600040666  0.006660429919787173  1.0000
  C   C1038     1.0  0.9656926680827093  0.013100858655907377  0.011939544573435155  1.0000
  C   C1039     1.0  0.9552893891234675  0.9703607995299707  0.010639396444680371  1.0000
  C   C1040     1.0  0.9557246756871849  0.9026520129588149  0.9583395834645058  1.0000
  C   C1041     1.0  0.9639026704689774  0.919850808394544  0.9338481064378172  1.0000
  C   C1042     1.0  0.9403646534270512  0.9379577406284311  0.9175944881307404  1.0000
  C   C1043     1.0  0.9092916653370191  0.9272760505742753  0.9227835314908879  1.0000
  C   C1044     1.0  0.9011384997548962  0.9145723479847316  0.9474224015780008  1.0000
  C   C1045     1.0  0.9242975206444367  0.9034881103103237  0.9664583162859661  1.0000
  C   C1046     1.0  0.9475132770749207  0.9732201753129633  0.8955723496369159  1.0000
  C   C1047     1.0  0.5402183553379528  0.036165204580941246  0.929420257376026  1.0000
  C   C1048     1.0  0.517830662146045  0.031315286797197736  0.9492153472993281  1.0000
  C   C1049     1.0  0.9868267216703248  0.018118235578811648  0.9266662281374108  1.0000
  C   C1050     1.0  0.9779101657532732  0.0032444575985342006  0.9007290876687511  1.0000
  C   C1051     1.0  0.5057651133716701  7.495538103285959e-05  0.8977812264602627  1.0000
  C   C1052     1.0  0.533984423966567  0.021032295089185683  0.9035961855564592  1.0000
  C   C1053     1.0  0.9207207570636524  0.010360339279626762  0.893599705526852  1.0000
  C   C1054     1.0  0.9044610577780644  0.027324035207543937  0.9163042940812718  1.0000
  C   C1055     1.0  0.8829772128020817  0.06080233301939939  0.9143639552995201  1.0000
  C   C1056     1.0  0.8782326110236159  0.079967213000092  0.8901430353974463  1.0000
  C   C1057     1.0  0.894453312170595  0.06515259528456073  0.8678523588620267  1.0000
  C   C1058     1.0  0.915973403631351  0.0316563039615044  0.8695302168512418  1.0000
  C   C1059     1.0  0.9207658205045981  0.9270341034979954  0.8569674823038339  1.0000
  C   C1060     1.0  0.9188185816680534  0.88608888636566  0.8449923009151044  1.0000
  C   C1061     1.0  0.9462507504597809  0.8618415244197773  0.83966595990963  1.0000
  C   C1062     1.0  0.9745037133253227  0.8762047161885392  0.850280279343208  1.0000
  C   C1063     1.0  0.9756355752836867  0.9135846001383533  0.8658736575029043  1.0000
  C   C1064     1.0  0.9486943954167613  0.9395679586650352  0.8702530485722272  1.0000
  H   H785      1.0  0.9328807327735951  0.9207919520461704  0.05083869325661108  1.0000
  H   H786      1.0  0.9362825906885381  0.8194389007316266  0.9889912827837274  1.0000
  H   H787      1.0  0.9352856634800967  0.7642374448246656  0.023017950239048162  1.0000
  H   H788      1.0  0.9332171175473652  0.864916091240342  0.08435466374731335  1.0000
  H   H789      1.0  0.8808080850487661  0.9845827596632538  0.989166943006425  1.0000
  H   H790      1.0  0.8967135134100551  0.06254485703469652  0.9949798830196018  1.0000
  H   H791      1.0  0.990121800335802  0.02013687633121486  0.017081139482624127  1.0000
  H   H792      1.0  0.9728050295728787  0.9453338479709987  0.015368432120492326  1.0000
  H   H793      1.0  0.9749185178190417  0.8946872816857568  0.9717180275517966  1.0000
  H   H794      1.0  0.9887981172094829  0.9233183007087181  0.9290164407721235  1.0000
  H   H795      1.0  0.8899722486613084  0.937541809323782  0.9099381253207484  1.0000
  H   H796      1.0  0.8759045635728974  0.9168687531615449  0.9525751014437972  1.0000
  H   H797      1.0  0.5211409559549965  0.045709216946478136  0.9693698340001033  1.0000
  H   H798      1.0  0.9744387338543754  0.00824363694345065  0.9447774028224393  1.0000
  H   H799      1.0  0.5012592068434786  0.9906220061624177  0.8769907286083409  1.0000
  H   H800      1.0  0.5502654706751287  0.026763180062896796  0.8872698802606799  1.0000
  H   H801      1.0  0.908652880536011  0.014877506814221064  0.9363780174612666  1.0000
  H   H802      1.0  0.8704667716570298  0.07255671437397314  0.9321843820297389  1.0000
  H   H803      1.0  0.8902846081965086  0.08102521098763515  0.8489274937201345  1.0000
  H   H804      1.0  0.9287646380026787  0.021201775298725196  0.8516108550530669  1.0000
  H   H805      1.0  0.8987709476188522  0.945030443308719  0.8603878089388883  1.0000
  H   H806      1.0  0.896255839383699  0.8736170675719892  0.8378588806071662  1.0000
  H   H807      1.0  0.996307479012836  0.8577814405473414  0.846672177987339  1.0000
  H   H808      1.0  0.9978549879726143  0.9214385842543568  0.8758418703702382  1.0000
  C   C1065     1.0  0.6178989979523266  0.012914537598510245  0.9370180667784521  1.0000
  C   C1066     1.0  0.6056383113576638  0.9708508312130305  0.9334220799207  1.0000
  C   C1067     1.0  0.6235220740885397  0.9349114044356056  0.9402485996096724  1.0000
  C   C1068     1.0  0.6544686233638304  0.9388961612944029  0.9502551750543771  1.0000
  C   C1069     1.0  0.6654072861019108  0.9822061215191327  0.9556340122183589  1.0000
  C   C1070     1.0  0.6469805287235794  0.01846036827001063  0.9494253319333573  1.0000
  H   H809      1.0  0.5833514117119908  0.9658681135708714  0.9232176343400832  1.0000
  H   H810      1.0  0.6131024360368312  0.9028443966029522  0.9364224372876959  1.0000
  H   H811      1.0  0.6889261530176831  0.9892785176965398  0.9632701841981557  1.0000
  H   H812      1.0  0.657073845364744  0.051242172261131494  0.952165227590836  1.0000
  C   C1071     1.0  0.7281287514421966  0.9288929409769413  0.9354371247741737  1.0000
  C   C1072     1.0  0.7137969796673365  0.8971422918952712  0.9508487854621138  1.0000
  C   C1073     1.0  0.7325967555404763  0.8625828602739587  0.9596883309215403  1.0000
  C   C1074     1.0  0.7634380176975295  0.8577105945158032  0.9512384684848798  1.0000
  C   C1075     1.0  0.7771918254361417  0.8888276425742365  0.935895456619603  1.0000
  C   C1076     1.0  0.7596138623282104  0.9250393482540885  0.9283117807983136  1.0000
  C   C1077     1.0  0.6757901375149912  0.894285255676251  0.9538794290744024  1.0000
  C   C1078     1.0  0.669229971666474  0.8572679996530165  0.9304015317235091  1.0000
  C   C1079     1.0  0.6683453792641789  0.8117050560084739  0.933886469015188  1.0000
  C   C1080     1.0  0.6646951893918586  0.7827768508750736  0.9123913111894563  1.0000
  C   C1081     1.0  0.6639846062135468  0.7990194815594354  0.8866338691095333  1.0000
  C   C1082     1.0  0.6653631853858952  0.8438603111158645  0.8824765771723568  1.0000
  C   C1083     1.0  0.6684137608376696  0.8720761686676208  0.9042665211189373  1.0000
  C   C1084     1.0  0.6817798097083674  0.8978868820234207  0.00630161867638958  1.0000
  C   C1085     1.0  0.6741561873200835  0.8845642963805641  0.03166366372860135  1.0000
  C   C1086     1.0  0.6527693308712789  0.8501498056018443  0.035418956236592934  1.0000
  C   C1087     1.0  0.6347224645234352  0.8360574559641091  0.013405742089714658  1.0000
  C   C1088     1.0  0.6410458341438963  0.8518705503107047  0.9881654778287466  1.0000
  C   C1089     1.0  0.6658279896171568  0.8807866769539504  0.9835377395480237  1.0000
  C   C1090     1.0  0.6531696571601596  0.8275811218404086  0.0646373085202625  1.0000
  C   C1091     1.0  0.752598186666267  0.7962879028506951  0.050010263493705034  1.0000
  C   C1092     1.0  0.7446954614868952  0.8224950475523126  0.07203866114489003  1.0000
  C   C1093     1.0  0.7130764651982447  0.8290084576162248  0.07845995087184614  1.0000
  C   C1094     1.0  0.6889562147437942  0.8092837768904102  0.06352358232669933  1.0000
  C   C1095     1.0  0.6982781164870799  0.7782813067238465  0.043670544720737246  1.0000
  C   C1096     1.0  0.7297130388748784  0.7722905514086451  0.03680283573816691  1.0000
  C   C1097     1.0  0.6293707789666431  0.7875280920856367  0.06882004090348492  1.0000
  C   C1098     1.0  0.5974851756827505  0.7921070345545401  0.06212031962813803  1.0000
  C   C1099     1.0  0.5783143954998675  0.7555524061029818  0.059690151305852604  1.0000
  C   C1100     1.0  0.5892302369870775  0.714284366001155  0.06634989473741314  1.0000
  C   C1101     1.0  0.6198667431890185  0.7100924094023664  0.07663288264748913  1.0000
  C   C1102     1.0  0.639543323243261  0.7465909852308411  0.07893140675690234  1.0000
  C   C1103     1.0  0.6535049111583773  0.8545153543739475  0.11504634091032127  1.0000
  C   C1104     1.0  0.6565424374818192  0.8898569002273296  0.1331023946289171  1.0000
  C   C1105     1.0  0.6463850838720121  0.9315296330651164  0.12567984163258467  1.0000
  C   C1106     1.0  0.6326078863436769  0.9367066307699493  0.1007595113725517  1.0000
  C   C1107     1.0  0.6309451750659198  0.901673705985502  0.08277553891775248  1.0000
  C   C1108     1.0  0.6450137261628643  0.8615873724280967  0.08868943308190504  1.0000
  H   H813      1.0  0.7137845577120122  0.9534288494157867  0.9254345874955081  1.0000
  H   H814      1.0  0.7217592673114118  0.8362375875608575  0.9708377073552892  1.0000
  H   H815      1.0  0.7766685908215123  0.827735240716119  0.9548728179200026  1.0000
  H   H816      1.0  0.7686958452379451  0.9472563313979129  0.9135179595143443  1.0000
  H   H817      1.0  0.6725658317112619  0.7985862247106128  0.953590700202612  1.0000
  H   H818      1.0  0.6655943339433539  0.7475330511910266  0.9152442754960277  1.0000
  H   H819      1.0  0.66561135196548  0.8578605319121316  0.8625441896037279  1.0000
  H   H820      1.0  0.6698907199531635  0.907190843608356  0.9007250495027121  1.0000
  H   H821      1.0  0.7000157702984278  0.9230642312389302  0.0036768915143439093  1.0000
  H   H822      1.0  0.6874700514117635  0.9007805832666258  0.048079616310447035  1.0000
  H   H823      1.0  0.6185194292877079  0.8083195305082385  0.01444003755729021  1.0000
  H   H824      1.0  0.6261848115389372  0.8416203261763979  0.9717200466348161  1.0000
  H   H825      1.0  0.7626793951161306  0.8422473192463451  0.08235011812554117  1.0000
  H   H826      1.0  0.7078441162717454  0.8555196710898768  0.09290527842664746  1.0000
  H   H827      1.0  0.6805800241067221  0.7610539681895202  0.031360599367372496  1.0000
  H   H828      1.0  0.7363914549508708  0.7512351969809095  0.019566913351266937  1.0000
  H   H829      1.0  0.5888461683178209  0.8236843522440612  0.055013955032661294  1.0000
  H   H830      1.0  0.5546931323234872  0.7583756372223495  0.050750863145262275  1.0000
  H   H831      1.0  0.6282732874372811  0.6769506191916184  0.08099006380359745  1.0000
  H   H832      1.0  0.6633936847078391  0.7417506471239941  0.08633841281398451  1.0000
  H   H833      1.0  0.6620425470722503  0.8219507734404111  0.12002842826096877  1.0000
  H   H834      1.0  0.6667695101402683  0.8852558207298078  0.15300267877753576  1.0000
  H   H835      1.0  0.6229051865815806  0.9684748901875952  0.09500997056618746  1.0000
  H   H836      1.0  0.6200694320149198  0.908688429809611  0.06382099325547354  1.0000
  C   C1109     1.0  0.5796192433263173  0.9941494821891985  0.8085640050770572  1.0000
  C   C1110     1.0  0.5570702913606282  0.9700060895927888  0.8210863579640746  1.0000
  C   C1111     1.0  0.5476654926893371  0.9299142645019429  0.8106557750852722  1.0000
  C   C1112     1.0  0.5613727736386792  0.9122822740740026  0.7869719312663888  1.0000
  C   C1113     1.0  0.5838947444127399  0.9380845531843404  0.7739710557037467  1.0000
  C   C1114     1.0  0.5919434706663732  0.9790958975390062  0.7842078066126759  1.0000
  H   H837      1.0  0.5474652668693673  0.9809621383951631  0.8405684900193522  1.0000
  H   H838      1.0  0.5307412454459837  0.9120375752917029  0.8225683649003969  1.0000
  H   H839      1.0  0.5965765902159854  0.9250481741084183  0.756697800471816  1.0000
  H   H840      1.0  0.6087574996334731  0.998627319056715  0.773116983586493  1.0000
  C   C1115     1.0  0.49426994443717603  0.8707476290520748  0.7834102688199684  1.0000
  C   C1116     1.0  0.5205136447943461  0.8435183505777714  0.7872424883910034  1.0000
  C   C1117     1.0  0.5141091199123632  0.8001958619300583  0.794987690853854  1.0000
  C   C1118     1.0  0.48414412947695235  0.7884546780768363  0.8034779349509046  1.0000
  C   C1119     1.0  0.9826459176745785  0.8427383959248479  0.7839735929824125  1.0000
  C   C1120     1.0  0.9868364811300921  0.8859254370690535  0.7772803327727279  1.0000
  C   C1121     1.0  0.5550785668955849  0.8619202820597871  0.7787522442939527  1.0000
  C   C1122     1.0  0.5848037245940972  0.8394031721759528  0.7926112301398875  1.0000
  C   C1123     1.0  0.6136601864087394  0.833433289190929  0.7793135493733773  1.0000
  C   C1124     1.0  0.6394888164576588  0.8158454183790632  0.792340673015273  1.0000
  C   C1125     1.0  0.6371626473088493  0.8046385482616879  0.8190773703596594  1.0000
  C   C1126     1.0  0.6091958381389485  0.8140812660124063  0.8329262607904967  1.0000
  C   C1127     1.0  0.5833975190986663  0.8309993085582573  0.8198345264919767  1.0000
  C   C1128     1.0  0.5421352132879471  0.8825273190169273  0.7295330575272928  1.0000
  C   C1129     1.0  0.5345467336994955  0.8698598752841078  0.7032587301943746  1.0000
  C   C1130     1.0  0.5360759575395252  0.8250269473479966  0.6951662454521679  1.0000
  C   C1131     1.0  0.543072998999913  0.7944074593724024  0.7146705874206601  1.0000
  C   C1132     1.0  0.5537211577276927  0.8069252880187473  0.7392731140134218  1.0000
  C   C1133     1.0  0.5521859202213084  0.8509480255961726  0.7478340260161555  1.0000
  C   C1134     1.0  0.5245050429479726  0.8077432267278754  0.6660026103183271  1.0000
  C   C1135     1.0  0.9454437316210218  0.8723532142634758  0.6992124878232713  1.0000
  C   C1136     1.0  0.9576829040134782  0.8884492566600354  0.675730552306339  1.0000
  C   C1137     1.0  0.9851633355798208  0.8719376191483372  0.6647911605066196  1.0000
  C   C1138     1.0  0.0016830941512293233  0.8367033155107425  0.6756800752308513  1.0000
  C   C1139     1.0  0.9892396246086688  0.8205535132433328  0.6995638082686664  1.0000
  C   C1140     1.0  0.9609390265792201  0.8369722040176173  0.7106404977137127  1.0000
  C   C1141     1.0  0.5335749347671882  0.757617113089883  0.6600099719164135  1.0000
  C   C1142     1.0  0.5649213204232129  0.7438987809117001  0.6642661989215461  1.0000
  C   C1143     1.0  0.572992423692298  0.7001604830971895  0.6633172299023753  1.0000
  C   C1144     1.0  0.5506204291657838  0.6696458658562333  0.6561615996812223  1.0000
  C   C1145     1.0  0.5205082595643966  0.6826290598004343  0.649157400686533  1.0000
  C   C1146     1.0  0.512008001719232  0.726451318686823  0.6499892628905722  1.0000
  C   C1147     1.0  0.5301653978824461  0.8212588397610278  0.6154770768380424  1.0000
  C   C1148     1.0  0.5460139382269523  0.8363431579895233  0.5935902169065252  1.0000
  C   C1149     1.0  0.5709857976289581  0.8649427674787316  0.5971175549416138  1.0000
  C   C1150     1.0  0.5828044467022291  0.8737815144113884  0.6227518329573465  1.0000
  C   C1151     1.0  0.5687040200128408  0.8555599582231443  0.6445155288246734  1.0000
  C   C1152     1.0  0.5412659928226472  0.8301459862491197  0.6412910532425118  1.0000
  H   H841      1.0  0.4973722526042219  0.9034417698832399  0.7751724101003568  1.0000
  H   H842      1.0  0.5329507747118069  0.7758914153731532  0.7956115875068834  1.0000
  H   H843      1.0  0.005303471425572254  0.7804855871070411  0.788536720606511  1.0000
  H   H844      1.0  0.9667777004587244  0.9082721986188286  0.7758811082402057  1.0000
  H   H845      1.0  0.6151268866611539  0.841241214754793  0.7580788532571626  1.0000
  H   H846      1.0  0.6617378558455476  0.8092632189898771  0.7818454794798461  1.0000
  H   H847      1.0  0.6067782677452195  0.8100086230296423  0.8543043118010968  1.0000
  H   H848      1.0  0.5625117986781065  0.8396850624617711  0.8318662422052526  1.0000
  H   H849      1.0  0.5394065152174287  0.9169475519034836  0.7354691616046599  1.0000
  H   H850      1.0  0.5265716801565119  0.8946675260601489  0.689436087842791  1.0000
  H   H851      1.0  0.5399318258842227  0.7591225881630506  0.711393615679991  1.0000
  H   H852      1.0  0.5589916335900533  0.7805579556458353  0.7530129739612055  1.0000
  H   H853      1.0  0.946697959805341  0.9147434496599941  0.6646922254386634  1.0000
  H   H854      1.0  0.48749583043364797  0.8749149804037833  0.6431223615412097  1.0000
  H   H855      1.0  0.0013667527752188454  0.7940150387978637  0.7095865363775272  1.0000
  H   H856      1.0  0.9522723368639385  0.8223973687202443  0.7285457259307511  1.0000
  H   H857      1.0  0.5831160896016272  0.766996047364128  0.6706525585122647  1.0000
  H   H858      1.0  0.5967950557039707  0.6895032259129918  0.6676299912320544  1.0000
  H   H859      1.0  0.5035720549636289  0.6579208491369797  0.6423793389900291  1.0000
  H   H860      1.0  0.48836401160568277  0.735168608301671  0.6433989759148829  1.0000
  H   H861      1.0  0.5095826494285698  0.800339506586517  0.612529215629554  1.0000
  H   H862      1.0  0.5376177596487715  0.8281232536545811  0.5734740927831207  1.0000
  H   H863      1.0  0.6029502842138571  0.8957406076071173  0.6260086138678205  1.0000
  H   H864      1.0  0.5808284602359647  0.8609284718466442  0.6633414588986094  1.0000
  C   C1153     1.0  0.5256264709944503  0.33832651095063165  0.5023841987490996  1.0000
  C   C1154     1.0  0.5316182736284477  0.3784897707232345  0.5148702081417659  1.0000
  C   C1155     1.0  0.5580053311700159  0.40283330689599844  0.5079891732112668  1.0000
  C   C1156     1.0  0.578865542831524  0.3878820741906924  0.487368278332984  1.0000
  C   C1157     1.0  0.5731975853317325  0.34606470321058946  0.47604324167653755  1.0000
  C   C1158     1.0  0.5472992603669241  0.32139712574931717  0.48339674203360267  1.0000
  H   H865      1.0  0.5150447413372107  0.39144904354967486  0.5298376705654132  1.0000
  H   H866      1.0  0.5630324972838191  0.4336645021282674  0.5189204886789083  1.0000
  H   H867      1.0  0.5894155265366472  0.33216073501255067  0.4612009624001  1.0000
  H   H868      1.0  0.5428584594733581  0.28979082275767165  0.47364659013237603  1.0000
  C   C1159     1.0  0.639261202647368  0.41033714234563945  0.5238833947408704  1.0000
  C   C1160     1.0  0.6347349604898345  0.39169676401609  0.49839650978556216  1.0000
  C   C1161     1.0  0.6513398227546342  0.3533564569994035  0.49217773408546317  1.0000
  C   C1162     1.0  0.6715437944690833  0.3351918945665175  0.510506969736599  1.0000
  C   C1163     1.0  0.6767827944289733  0.35538854433410677  0.5352770802199802  1.0000
  C   C1164     1.0  0.6605596473917676  0.39339231486355314  0.5418249664522599  1.0000
  C   C1165     1.0  0.6102140723720345  0.4137324337710952  0.4783550917338795  1.0000
  C   C1166     1.0  0.6072172387046818  0.4663415436974625  0.48050137698362144  1.0000
  C   C1167     1.0  0.6332170766459592  0.49269978055302344  0.4869624426460619  1.0000
  C   C1168     1.0  0.6295776225479839  0.536963020715002  0.49174363123626796  1.0000
  C   C1169     1.0  0.6004806865331259  0.5566236181957106  0.4897346436318528  1.0000
  C   C1170     1.0  0.5749443576622817  0.5320972100840083  0.4800995794627384  1.0000
  C   C1171     1.0  0.5784369829341697  0.48750309968967587  0.4751972458913617  1.0000
  C   C1172     1.0  0.5957434180863418  0.4088471314328087  0.42774071860073626  1.0000
  C   C1173     1.0  0.6017665610095476  0.42438149904687633  0.4025021808568281  1.0000
  C   C1174     1.0  0.6320600283572968  0.4385491656474164  0.3951567568318411  1.0000
  C   C1175     1.0  0.6567825116499766  0.4296871007997035  0.41279950425634265  1.0000
  C   C1176     1.0  0.6500362481807295  0.4171369251360854  0.43849839292869974  1.0000
  C   C1177     1.0  0.6191739135822015  0.4087419907755671  0.44704315226727726  1.0000
  C   C1178     1.0  0.637227149148024  0.4692692129711896  0.36977890235958655  1.0000
  C   C1179     1.0  0.7390083546638101  0.5015610312226302  0.36623743074336135  1.0000
  C   C1180     1.0  0.7206606286715594  0.5198587455585331  0.38664026465553675  1.0000
  C   C1181     1.0  0.6883216788419632  0.5117627196171458  0.3867311233914148  1.0000
  C   C1182     1.0  0.6737285293260223  0.4860013928036713  0.3661869536678735  1.0000
  C   C1183     1.0  0.6921320600331193  0.47500932393515216  0.34338544912851715  1.0000
  C   C1184     1.0  0.724571016945145  0.481345742183176  0.3444414295477222  1.0000
  C   C1185     1.0  0.6188278182540589  0.515977924007775  0.373605064681563  1.0000
  C   C1186     1.0  0.6129058253224995  0.5414699382694074  0.3515506208594263  1.0000
  C   C1187     1.0  0.5902260192705403  0.5740740498474303  0.35315175369389984  1.0000
  C   C1188     1.0  0.5752261291236997  0.5834437286817626  0.3774029598412663  1.0000
  C   C1189     1.0  0.5848256584327062  0.5638220336352087  0.4004083917655935  1.0000
  C   C1190     1.0  0.60726523632513  0.5310907810579014  0.39864573228955896  1.0000
  C   C1191     1.0  0.5944334060702584  0.443472867470002  0.33400680850288084  1.0000
  C   C1192     1.0  0.5854758249801563  0.4180561064871692  0.31192813568450994  1.0000
  C   C1193     1.0  0.6029161461817528  0.3816936511415774  0.30373671587434714  1.0000
  C   C1194     1.0  0.6293621039613615  0.3700234554340528  0.3184275639243212  1.0000
  C   C1195     1.0  0.6394755617774437  0.3975725038095743  0.33917566103283325  1.0000
  C   C1196     1.0  0.623781295315081  0.43646623095242953  0.3461253447859958  1.0000
  H   H869      1.0  0.6261284852153193  0.4396595687483661  0.5296236477653448  1.0000
  H   H870      1.0  0.6481700200500217  0.3375894760776358  0.47265118220375624  1.0000
  H   H871      1.0  0.6843542046203691  0.3057024664494688  0.5038480339382463  1.0000
  H   H872      1.0  0.6627699466718937  0.4108926026816227  0.5609517398961031  1.0000
  H   H873      1.0  0.6563714906429613  0.47806983080545173  0.4896357085638967  1.0000
  H   H874      1.0  0.650402936361619  0.5560254418930332  0.4976878116457132  1.0000
  H   H875      1.0  0.5516044066191893  0.5467095172034662  0.47719613808067923  1.0000
  H   H876      1.0  0.5580348788877685  0.4683524839206107  0.4686574359911603  1.0000
  H   H877      1.0  0.5710250385871564  0.40346600121579435  0.4334809716252108  1.0000
  H   H878      1.0  0.5818211091911014  0.4294217935947404  0.38935795039980076  1.0000
  H   H879      1.0  0.6816216082061974  0.43716813972269525  0.408866330534332  1.0000
  H   H880      1.0  0.6693521438073594  0.4172412999068775  0.45295704643142987  1.0000
  H   H881      1.0  0.7304772752495916  0.5383281570076462  0.40390544355538943  1.0000
  H   H882      1.0  0.6741500374202783  0.5214310050376065  0.4043254128234481  1.0000
  H   H883      1.0  0.682412899840331  0.4565314384244746  0.32628987320230346  1.0000
  H   H884      1.0  0.7390648126167202  0.46879299797413404  0.3279172541160307  1.0000
  H   H885      1.0  0.6231089358668002  0.5315994181228584  0.33215530937398774  1.0000
  H   H886      1.0  0.5836207994468527  0.5904113066600084  0.3349214531107201  1.0000
  H   H887      1.0  0.5725034740292267  0.5720059684380534  0.41907885244702703  1.0000
  H   H888      1.0  0.613880609522094  0.5162716233985583  0.41719908615586077  1.0000
  H   H889      1.0  0.5792090265488188  0.4706808339178622  0.34034067193509204  1.0000
  H   H890      1.0  0.5634968789610263  0.42503522837314645  0.30159244970762467  1.0000
  H   H891      1.0  0.6417706522941458  0.33951269958929836  0.31258029949981253  1.0000
  H   H892      1.0  0.6605229283896629  0.38891288338480506  0.3500928429193382  1.0000
  C   C1197     1.0  0.601067863414488  0.40199794682863393  0.17459919457084702  1.0000
  C   C1198     1.0  0.6041843369405604  0.42724192161259456  0.19826688572557435  1.0000
  C   C1199     1.0  0.5811600066864535  0.45851079662744004  0.20531045683914426  1.0000
  C   C1200     1.0  0.5541143332921696  0.46329421917236724  0.18977765117003342  1.0000
  C   C1201     1.0  0.5527746282060281  0.43917083280407954  0.16561205414269425  1.0000
  C   C1202     1.0  0.575356335648593  0.4087976781157882  0.15822382555769354  1.0000
  H   H893      1.0  0.6254997873462046  0.4250247405103581  0.2107922672371211  1.0000
  H   H894      1.0  0.5837352354705122  0.47974581832356866  0.2233206773731971  1.0000
  H   H895      1.0  0.5329966353211509  0.44249371275255467  0.15172258014316475  1.0000
  H   H896      1.0  0.5712416289172245  0.38810154810675557  0.14045347208635878  1.0000
  C   C1203     1.0  0.98066342423959  0.4417333458382985  0.18430492664564435  1.0000
  C   C1204     1.0  0.986844497929324  0.4861188674122809  0.18033763042060397  1.0000
  C   C1205     1.0  0.9630908959548399  0.511366149843446  0.16877151525162765  1.0000
  C   C1206     1.0  0.9355500893775809  0.49240395434802964  0.1608308655524883  1.0000
  C   C1207     1.0  0.9314239742175398  0.44745551249309534  0.16287680237616045  1.0000
  C   C1208     1.0  0.9537347915308687  0.42205621237513113  0.17487096314527342  1.0000
  C   C1209     1.0  0.5257286834752352  0.4955213286368185  0.1993095401968507  1.0000
  C   C1210     1.0  0.5398987720238285  0.5419751788218636  0.18837418656317015  1.0000
  C   C1211     1.0  0.5519060333249298  0.5746934362190975  0.2056092811260321  1.0000
  C   C1212     1.0  0.5635031723361514  0.6132912924728289  0.1961076783445075  1.0000
  C   C1213     1.0  0.5660685421987302  0.6194680891328955  0.16892678273582817  1.0000
  C   C1214     1.0  0.5542883962678365  0.5879247010917928  0.15108030983465778  1.0000
  C   C1215     1.0  0.5406796082195455  0.5500766748174494  0.16058534505731556  1.0000
  C   C1216     1.0  0.4971641423998122  0.5234930872196963  0.24186595490742085  1.0000
  C   C1217     1.0  0.9735498775398527  0.525464336829429  0.2554786126249752  1.0000
  C   C1218     1.0  0.9849650347169351  0.4920569832225448  0.2716918492716618  1.0000
  C   C1219     1.0  0.5078707004883687  0.44886097297953026  0.2698746745541004  1.0000
  C   C1220     1.0  0.5238754335452975  0.4555983361753649  0.24629986121827066  1.0000
  C   C1221     1.0  0.5170564574966199  0.4918912376564923  0.23056514724720853  1.0000
  C   C1222     1.0  0.967088175097911  0.4791178691268999  0.298691027408585  1.0000
  C   C1223     1.0  0.863270496684755  0.4640540340700883  0.3022102891115956  1.0000
  C   C1224     1.0  0.8785021590868425  0.46267001883495157  0.277710735752829  1.0000
  C   C1225     1.0  0.9108812748520074  0.4717730896989954  0.2764124653712824  1.0000
  C   C1226     1.0  0.9288087527111657  0.48144343947334867  0.29911301575966315  1.0000
  C   C1227     1.0  0.9125330999968306  0.48369447456184833  0.32363881719768334  1.0000
  C   C1228     1.0  0.8801505081576422  0.47578390980401414  0.32531869426991794  1.0000
  C   C1229     1.0  0.9829281475868731  0.5145633294094336  0.3183649723507163  1.0000
  C   C1230     1.0  0.9703705542388595  0.5571752291790032  0.3205920209212388  1.0000
  C   C1231     1.0  0.9830932540527005  0.5883616348400227  0.3384649438099648  1.0000
  C   C1232     1.0  0.5010147071147043  0.556910518449945  0.36194284116085795  1.0000
  C   C1233     1.0  0.5152190103732216  0.5165619505913794  0.35696378243473975  1.0000
  C   C1234     1.0  0.5025212913349707  0.48757877054622584  0.33813381419476474  1.0000
  C   C1235     1.0  0.9682266383293797  0.41524567806074364  0.332995247910105  1.0000
  C   C1236     1.0  0.9667650636533481  0.37106365621519166  0.3387900161761063  1.0000
  C   C1237     1.0  0.9674300383509314  0.33931954216084853  0.31855678523757003  1.0000
  C   C1238     1.0  0.9714660978096645  0.3517109928276291  0.2927226180029056  1.0000
  C   C1239     1.0  0.9713764525404704  0.3948957061811771  0.28639683090277246  1.0000
  C   C1240     1.0  0.9703602275088863  0.42826478383151606  0.30621211165626966  1.0000
  H   H897      1.0  0.9985357172262489  0.4218359152065606  0.19370759435921284  1.0000
  H   H898      1.0  0.9654056008354414  0.5466025939028488  0.16735997431268634  1.0000
  H   H899      1.0  0.9172307394593584  0.512538854428036  0.15181586177866624  1.0000
  H   H900      1.0  0.9517835513432904  0.3859261112756871  0.17549122544886772  1.0000
  H   H901      1.0  0.5526188393794383  0.5705350601000913  0.22713674428007605  1.0000
  H   H902      1.0  0.5724905879399953  0.6381356157156801  0.20975445856509162  1.0000
  H   H903      1.0  0.5555782729377364  0.5930576349736582  0.12960816955534848  1.0000
  H   H904      1.0  0.5305675957296473  0.5264134544919328  0.1462494518021718  1.0000
  H   H905      1.0  0.9772262929571844  0.5599601242162603  0.2194379807266743  1.0000
  H   H906      1.0  0.952293560619942  0.5438848811673448  0.2614571174457521  1.0000
  H   H907      1.0  0.5141161538905487  0.42022083761042206  0.28124413103697615  1.0000
  H   H908      1.0  0.5393655718890985  0.428974117604785  0.23989532988037648  1.0000
  H   H909      1.0  0.8659884008009895  0.45107914564801704  0.2595894656527029  1.0000
  H   H910      1.0  0.9225992939243018  0.46754635162974983  0.25697677222545356  1.0000
  H   H911      1.0  0.9242878372869283  0.49013422009710234  0.34246070910558035  1.0000
  H   H912      1.0  0.8687598190137826  0.47371381618703395  0.34473419658555154  1.0000
  H   H913      1.0  0.9495079998062591  0.5656839823773245  0.3091559346987191  1.0000
  H   H914      1.0  0.971955277090014  0.6207629777210614  0.3403346146860335  1.0000
  H   H915      1.0  0.5359152176232217  0.5068038074407342  0.36842409765349354  1.0000
  H   H916      1.0  0.5147647720216811  0.45621970028677167  0.33523844914478357  1.0000
  H   H917      1.0  0.9671775528893758  0.4381913470539499  0.350222064232587  1.0000
  H   H918      1.0  0.9640892270891781  0.3617276514032644  0.3595623422808525  1.0000
  H   H919      1.0  0.9710942607981919  0.32697774776855615  0.27657803017888244  1.0000
  H   H920      1.0  0.9712214789204486  0.4027990840595685  0.26528529885074814  1.0000
  C   C1241     1.0  0.8047488826186707  0.3667292428364879  0.2963650437701064  1.0000
  C   C1242     1.0  0.7734219296664782  0.3724781344203875  0.30316935354586405  1.0000
  C   C1243     1.0  0.7503945490483381  0.3457390309047943  0.29193517562529564  1.0000
  C   C1244     1.0  0.7578047652973794  0.3133102001138888  0.2724288145737839  1.0000
  C   C1245     1.0  0.790102831646379  0.3063251813806348  0.2669247942625924  1.0000
  C   C1246     1.0  0.8127406386908086  0.3334451136640672  0.278187239345434  1.0000
  H   H921      1.0  0.7670640679987379  0.3991433158133983  0.3175048429844039  1.0000
  H   H922      1.0  0.725904883997789  0.35298404572373226  0.296938463347648  1.0000
  H   H923      1.0  0.7988091098748566  0.27999098834215874  0.2535382738432235  1.0000
  H   H924      1.0  0.8374182784175171  0.3274536587441461  0.27305271122681335  1.0000
  C   C1247     1.0  0.6941622009378071  0.3526883900704032  0.25039052341580326  1.0000
  C   C1248     1.0  0.6976239422362913  0.3071738260271102  0.2538189263829358  1.0000
  C   C1249     1.0  0.6704382545707632  0.2818154296065776  0.25074386294421797  1.0000
  C   C1250     1.0  0.6409639406623296  0.3007383279166646  0.2487631425020761  1.0000
  C   C1251     1.0  0.6376790017414781  0.34587668055879234  0.24848248996236383  1.0000
  C   C1252     1.0  0.6646106688162905  0.37184036920253766  0.24863594027184677  1.0000
  C   C1253     1.0  0.7314059816940561  0.2841900900885736  0.2575744207992293  1.0000
  C   C1254     1.0  0.7309577477451831  0.2438125649800749  0.2778116899038046  1.0000
  C   C1255     1.0  0.7508638128295517  0.20714312164366686  0.2754291719407797  1.0000
  C   C1256     1.0  0.7507055429222975  0.17456704246460036  0.2936816824371741  1.0000
  C   C1257     1.0  0.7297424109684428  0.1761691861663075  0.3149809892100131  1.0000
  C   C1258     1.0  0.709753728353811  0.2120690206391648  0.3179591366637943  1.0000
  C   C1259     1.0  0.7111971137887507  0.2462483594348117  0.30024975949964877  1.0000
  C   C1260     1.0  0.7526883928447926  0.2999420093324176  0.2104247941275698  1.0000
  C   C1261     1.0  0.7579326161402761  0.2891513627240453  0.18369920173979057  1.0000
  C   C1262     1.0  0.7464134795846135  0.24983886854548903  0.17191219888847958  1.0000
  C   C1263     1.0  0.7318941437950833  0.22057803596978406  0.1890091881728069  1.0000
  C   C1264     1.0  0.727344576165676  0.23089959828007428  0.21588641369535153  1.0000
  C   C1265     1.0  0.7381095975091511  0.27073541382687094  0.22735884341222246  1.0000
  C   C1266     1.0  0.7464739166929534  0.2422432761656837  0.13959677516117955  1.0000
  C   C1267     1.0  0.661556486989403  0.3236849113057432  0.13518003105599563  1.0000
  C   C1268     1.0  0.6908528664427019  0.3421418014385491  0.13057854085452628  1.0000
  C   C1269     1.0  0.7175140209594713  0.3161598485015243  0.12967560692820024  1.0000
  C   C1270     1.0  0.7159390819073208  0.27086230507463926  0.13357041807284015  1.0000
  C   C1271     1.0  0.6859001144165466  0.25277035043617807  0.13689685734748724  1.0000
  C   C1272     1.0  0.6590278303640748  0.27895718198997094  0.13829668760491534  1.0000
  C   C1273     1.0  0.7439300055820486  0.19399896122028581  0.12555183176914758  1.0000
  C   C1274     1.0  0.7581457045840966  0.1581964552761098  0.1371555018822868  1.0000
  C   C1275     1.0  0.7572562559755022  0.11665151770253666  0.12507653962635432  1.0000
  C   C1276     1.0  0.74396530302842  0.10989061531301622  0.10009442542592423  1.0000
  C   C1277     1.0  0.7302268889242108  0.1460197871307788  0.08776105870953314  1.0000
  C   C1278     1.0  0.7302895288334971  0.1870862792896116  0.10021900284822816  1.0000
  C   C1279     1.0  0.781103607188362  0.2788394631837191  0.10229401446738132  1.0000
  C   C1280     1.0  0.809402938605238  0.2963532199029136  0.0936264948812174  1.0000
  C   C1281     1.0  0.8370368021974482  0.2878422491808211  0.107755835943465  1.0000
  C   C1282     1.0  0.8360130630805057  0.2639269372955494  0.13078993884666926  1.0000
  C   C1283     1.0  0.8076686380392434  0.24880022506735605  0.14021461456515041  1.0000
  C   C1284     1.0  0.7792322639125573  0.25741790567436507  0.12678367431935225  1.0000
  H   H925      1.0  0.7146036894265387  0.37450617147801807  0.24958289020799823  1.0000
  H   H926      1.0  0.6710411041607465  0.2459144192988625  0.25066108054041797  1.0000
  H   H927      1.0  0.6199310962305088  0.28009136378123534  0.24938098190604696  1.0000
  H   H928      1.0  0.6634127428685195  0.4076354229625544  0.24829269615852964  1.0000
  H   H929      1.0  0.7683513246741857  0.2044778048378976  0.2595874465696834  1.0000
  H   H930      1.0  0.7663463080918026  0.14622136049993512  0.2908791952060905  1.0000
  H   H931      1.0  0.6936912179116373  0.2151934531059065  0.3350082736805591  1.0000
  H   H932      1.0  0.6958627798236089  0.27459738076431167  0.30371854412717153  1.0000
  H   H933      1.0  0.7595055409691439  0.33243424138857935  0.21790549671486417  1.0000
  H   H934      1.0  0.7701911084842428  0.3135961056886333  0.17238002042410067  1.0000
  H   H935      1.0  0.7211624642244485  0.19050314526269824  0.18077597334414014  1.0000
  H   H936      1.0  0.7123447004410182  0.20851414810684277  0.22688032073659795  1.0000
  H   H937      1.0  0.6941017075893566  0.37713124053588987  0.1283718850225009  1.0000
  H   H938      1.0  0.7399033302905219  0.33324289605336693  0.12850251969386337  1.0000
  H   H939      1.0  0.6839695781017688  0.2178070062953521  0.14057158844300027  1.0000
  H   H940      1.0  0.63631296880145  0.26389473919532164  0.14164392343466342  1.0000
  H   H941      1.0  0.7704266529773663  0.16166341818725796  0.1563382039257707  1.0000
  H   H942      1.0  0.7701250031423537  0.0904581077144175  0.13437280166479446  1.0000
  H   H943      1.0  0.720310449793792  0.14350879991769297  0.0675793143879944  1.0000
  H   H944      1.0  0.7208222819536316  0.21481534586093587  0.08917845498923102  1.0000
  H   H945      1.0  0.759900503060257  0.28539541175028027  0.09055223907570742  1.0000
  H   H946      1.0  0.8092170114960012  0.31609525479770123  0.0756063808403689  1.0000
  H   H947      1.0  0.8571655666436228  0.25680029925769976  0.1422373319340982  1.0000
  H   H948      1.0  0.8074062375062698  0.23083655503018943  0.15861754674649853  1.0000
  C   C1285     1.0  0.7987790333584477  0.4286104630048181  0.39035739649445955  1.0000
  C   C1286     1.0  0.7818148716463422  0.39684311947097  0.3761511283691685  1.0000
  C   C1287     1.0  0.7913776156917262  0.3533326345982997  0.37538791498779267  1.0000
  C   C1288     1.0  0.8166573512895848  0.3397847283064051  0.3915304837287964  1.0000
  C   C1289     1.0  0.8340478917595854  0.37191973015623586  0.4054480229822971  1.0000
  C   C1290     1.0  0.8246476513490132  0.41500545798128313  0.40516737044258483  1.0000
  H   H949      1.0  0.7603667920196129  0.4061767102304034  0.36580130881114664  1.0000
  H   H950      1.0  0.7763247247272875  0.33089661065655135  0.3640871073275804  1.0000
  H   H951      1.0  0.8542135694177971  0.36208907305404003  0.4177502958201877  1.0000
  H   H952      1.0  0.8383192662339464  0.43800335264495305  0.41759078826164625  1.0000
  C   C1291     1.0  0.8498709003371215  0.2806220241961832  0.34494014305354187  1.0000
  C   C1292     1.0  0.8551087604045641  0.2884319653717938  0.37230477521699684  1.0000
  C   C1293     1.0  0.8860318695324706  0.2951870401051024  0.3809908703669403  1.0000
  C   C1294     1.0  0.9109728977822645  0.2893703666877333  0.3635863747387412  1.0000
  C   C1295     1.0  0.9054667496546801  0.2789262229744296  0.3364418226244131  1.0000
  C   C1296     1.0  0.8747965920081568  0.2754504997013941  0.3272368231384549  1.0000
  C   C1297     1.0  0.8267147132698831  0.2888529092019515  0.3935212995860359  1.0000
  C   C1298     1.0  0.7999484918637928  0.25302377029618456  0.38690274544807335  1.0000
  C   C1299     1.0  0.8082566484821543  0.21283143651537453  0.37465498785170964  1.0000
  C   C1300     1.0  0.7862393668669689  0.18095284709400522  0.36832516258553744  1.0000
  C   C1301     1.0  0.7544393221534449  0.1874582464789447  0.3746691214328462  1.0000
  C   C1302     1.0  0.7458553578676548  0.22625467261534435  0.38844128670894196  1.0000
  C   C1303     1.0  0.7683203240335899  0.25858761031511696  0.3944500777750117  1.0000
  C   C1304     1.0  0.8259572674941208  0.289485682120872  0.44611235499528196  1.0000
  C   C1305     1.0  0.8338300377111983  0.27317689183310595  0.47047259162570215  1.0000
  C   C1306     1.0  0.8519192647063782  0.23468332078984505  0.4721464114488781  1.0000
  C   C1307     1.0  0.8610210914401242  0.21263806392706813  0.44856957903002886  1.0000
  C   C1308     1.0  0.8543868778985851  0.23056083235526906  0.4240680065882428  1.0000
  C   C1309     1.0  0.8366179608242664  0.26975231425104124  0.42233159519146196  1.0000
  C   C1310     1.0  0.8673817385908288  0.21966253524291185  0.4998421732275332  1.0000
  C   C1311     1.0  0.9527194228087014  0.3000842743458504  0.49197380670049234  1.0000
  C   C1312     1.0  0.9272360464691792  0.3167745725701423  0.506024605433281  1.0000
  C   C1313     1.0  0.9007818611669596  0.29170947212787746  0.5084717340529302  1.0000
  C   C1314     1.0  0.8998820392826169  0.24791303384093383  0.49865697149507926  1.0000
  C   C1315     1.0  0.9269216933847064  0.23086841882148335  0.4854582257965251  1.0000
  C   C1316     1.0  0.9526911877663872  0.257429827506776  0.4811515217159046  1.0000
  C   C1317     1.0  0.870536864470788  0.16684337411640293  0.5031110686361242  1.0000
  C   C1318     1.0  0.8470510875650508  0.13864460955574354  0.49290056580644864  1.0000
  C   C1319     1.0  0.846355626440649  0.09428175603112213  0.49847929218936216  1.0000
  C   C1320     1.0  0.8687690241575665  0.07704911941958215  0.515910035896815  1.0000
  C   C1321     1.0  0.8926949387515147  0.10311764611850209  0.525434050499856  1.0000
  C   C1322     1.0  0.8942343824748188  0.14735056688315867  0.5186297407240984  1.0000
  C   C1323     1.0  0.8613164765677838  0.2376758889376905  0.5509269927042229  1.0000
  C   C1324     1.0  0.8440266586064451  0.25006749822055446  0.5729874937754181  1.0000
  C   C1325     1.0  0.8121777512730837  0.25770887766964484  0.5713318456994178  1.0000
  C   C1326     1.0  0.796561054109478  0.24728335185268546  0.5479750933296954  1.0000
  C   C1327     1.0  0.812820113267294  0.23237561414448507  0.5256904740433342  1.0000
  C   C1328     1.0  0.84606475063982  0.23004738960967772  0.5263365806095782  1.0000
  H   H953      1.0  0.8261073501710219  0.27748083641399274  0.33689005905474495  1.0000
  H   H954      1.0  0.8915060380410587  0.30341955846328267  0.40191866586418895  1.0000
  H   H955      1.0  0.9344344492863704  0.29390319599913844  0.37203421809238213  1.0000
  H   H956      1.0  0.8711757315202272  0.2658958546299551  0.3062827795619526  1.0000
  H   H957      1.0  0.8322153025971989  0.20566153528662795  0.36773357126082024  1.0000
  H   H958      1.0  0.7937511049944318  0.15023783036722665  0.3583387779710278  1.0000
  H   H959      1.0  0.7216760404238878  0.2324260313650871  0.3947226539826459  1.0000
  H   H960      1.0  0.761045682471861  0.2882260208757045  0.4053268780011263  1.0000
  H   H961      1.0  0.8125291135613428  0.31990919530117906  0.44591852302540874  1.0000
  H   H962      1.0  0.826831748272742  0.2918047188279592  0.48853934648430136  1.0000
  H   H963      1.0  0.8771841626208009  0.18496409429231678  0.44897137655091185  1.0000
  H   H964      1.0  0.8643864273502355  0.21499068292822207  0.4061809501183802  1.0000
  H   H965      1.0  0.9268017852211857  0.35067746416034407  0.5136002049224925  1.0000
  H   H966      1.0  0.8802283658829401  0.3070682426453891  0.5176666381237909  1.0000
  H   H967      1.0  0.927031743305418  0.19787921920208196  0.47656820326161087  1.0000
  H   H968      1.0  0.9719328153278735  0.24482872514611825  0.46839495519862356  1.0000
  H   H969      1.0  0.8284750304847749  0.15105951206479756  0.4801520756212458  1.0000
  H   H970      1.0  0.8269527392987194  0.07324546381595036  0.4916224862550972  1.0000
  H   H971      1.0  0.9090332640736418  0.08923888173206343  0.5396524331232642  1.0000
  H   H972      1.0  0.9126036503843938  0.16674208190774517  0.5285696864291592  1.0000
  H   H973      1.0  0.8867415588467414  0.23479740715226066  0.5534468083125746  1.0000
  H   H974      1.0  0.8555090332697864  0.2543757493418637  0.5923242518532909  1.0000
  H   H975      1.0  0.7710961566472521  0.2509260426744418  0.5467858534312025  1.0000
  H   H976      1.0  0.7991403381995602  0.22471730286659855  0.5077731313281789  1.0000
  C   C1329     1.0  0.8521854900191393  0.6906960577945  0.4347691465916599  1.0000
  C   C1330     1.0  0.8481209349138208  0.7207407023369575  0.41468936596260647  1.0000
  C   C1331     1.0  0.8210580526805753  0.7473378820038983  0.4140089349850307  1.0000
  C   C1332     1.0  0.7975042037374309  0.7438098697269604  0.43352741053465954  1.0000
  C   C1333     1.0  0.8037135342595092  0.716020236544779  0.4552588010736742  1.0000
  C   C1334     1.0  0.8302252108996274  0.6891791565780275  0.455139675175523  1.0000
  H   H977      1.0  0.8663965338023228  0.7231570584277499  0.3993927930067786  1.0000
  H   H978      1.0  0.8190751475946193  0.7704010474054306  0.3979733776440612  1.0000
  H   H979      1.0  0.7873402644585085  0.7126845236329504  0.4720010374714732  1.0000
  H   H980      1.0  0.8329119921413755  0.6658871109043901  0.4711752325164925  1.0000
  C   C1335     1.0  0.7414085469234707  0.6912074380595877  0.4204235617380225  1.0000
  C   C1336     1.0  0.7367806697489451  0.7354883982536823  0.42883506159731216  1.0000
  C   C1337     1.0  0.7056665293481941  0.751749201256363  0.4289117867520536  1.0000
  C   C1338     1.0  0.6815090109337243  0.7257161123331032  0.4195392033754759  1.0000
  C   C1339     1.0  0.6860587962824017  0.6824880347798543  0.41212714961084496  1.0000
  C   C1340     1.0  0.7159619931378967  0.6650936150165035  0.4135243550603477  1.0000
  C   C1341     1.0  0.7651586622015261  0.7696450673692165  0.43210395700590315  1.0000
  C   C1342     1.0  0.7594611102013642  0.8019146703930883  0.4073600946017756  1.0000
  C   C1343     1.0  0.7500142788923353  0.8455610459752954  0.4113114400709619  1.0000
  C   C1344     1.0  0.737992617013553  0.8693960167796414  0.3907450604342059  1.0000
  C   C1345     1.0  0.7367740000330365  0.851746207845826  0.36481599629762446  1.0000
  C   C1346     1.0  0.7466392503407487  0.809101067938746  0.3601599908546283  1.0000
  C   C1347     1.0  0.7583170685117844  0.7843558532313084  0.3809060688801208  1.0000
  C   C1348     1.0  0.7406877273767365  0.7924944848797656  0.47908398070392355  1.0000
  C   C1349     1.0  0.7349792946178718  0.8245566773567684  0.4979987504307181  1.0000
  C   C1350     1.0  0.7536138686794808  0.8610895443939172  0.5003206959031576  1.0000
  C   C1351     1.0  0.7812868504957123  0.8620705646148161  0.4848363482265151  1.0000
  C   C1352     1.0  0.7871505867315287  0.829376722874092  0.4651987467787351  1.0000
  C   C1353     1.0  0.7644669720717779  0.7971189325502352  0.46008844765634854  1.0000
  C   C1354     1.0  0.7395456501824711  0.9047965648193014  0.5146258990964049  1.0000
  C   C1355     1.0  0.6869855692479099  0.9518922383455131  0.444285084862623  1.0000
  C   C1356     1.0  0.671498566977173  0.9294763907093757  0.4642841021708959  1.0000
  C   C1357     1.0  0.6879829119775905  0.9133151534594485  0.48563994326828114  1.0000
  C   C1358     1.0  0.7198981732609875  0.9233104943752904  0.4895428307449991  1.0000
  C   C1359     1.0  0.7356763924713969  0.9449668994570641  0.4689926037723994  1.0000
  C   C1360     1.0  0.7194518162691176  0.9597921701056343  0.4467524043124675  1.0000
  C   C1361     1.0  0.7667509402801274  0.9356278937157044  0.5266697293077978  1.0000
  C   C1362     1.0  0.792452059042265  0.9179557228998882  0.5405004479914596  1.0000
  C   C1363     1.0  0.8170237100036348  0.9447131149232276  0.549273363711242  1.0000
  C   C1364     1.0  0.8164817901641422  0.9895109340182866  0.5444941942040555  1.0000
  C   C1365     1.0  0.7898305345055735  0.008067040214555288  0.5329854209928334  1.0000
  C   C1366     1.0  0.7650646440213817  0.9813488587218718  0.5248242874279633  1.0000
  C   C1367     1.0  0.6966743857798259  0.9300441023556387  0.5492572110470859  1.0000
  C   C1368     1.0  0.6786960631856116  0.9248107653864412  0.5718204637901397  1.0000
  C   C1369     1.0  0.6855325912231541  0.8912004346087722  0.588922096965412  1.0000
  C   C1370     1.0  0.70871703296972  0.861022911886606  0.5815322531139957  1.0000
  C   C1371     1.0  0.7250492309027076  0.8643255547384874  0.5580644511782001  1.0000
  C   C1372     1.0  0.7184104253444819  0.898139103145255  0.5407730241990938  1.0000
  H   H981      1.0  0.7645735176884578  0.675938771860594  0.4177179904918755  1.0000
  H   H982      1.0  0.7012249361286322  0.7869325109793505  0.4329782199533521  1.0000
  H   H983      1.0  0.6596621339439257  0.7418692555182246  0.4169487198614412  1.0000
  H   H984      1.0  0.7201813295373459  0.6314888464680987  0.4061203776277948  1.0000
  H   H985      1.0  0.7497214183240613  0.8630335754975941  0.4303433166128881  1.0000
  H   H986      1.0  0.732176781953484  0.9038173527983645  0.3950396500167094  1.0000
  H   H987      1.0  0.744532354251603  0.7950984883680234  0.3398157103500188  1.0000
  H   H988      1.0  0.7648645520394993  0.7501194399222123  0.3765246587277783  1.0000
  H   H989      1.0  0.7256692091211124  0.7638763106225959  0.4787750610019381  1.0000
  H   H990      1.0  0.713685445850922  0.8214898015097873  0.5098891303326282  1.0000
  H   H991      1.0  0.7971417624725942  0.8903994255104807  0.4858236798230568  1.0000
  H   H992      1.0  0.807401951831129  0.8317856262025672  0.45175771111783936  1.0000
  H   H993      1.0  0.6462443096880874  0.923392772090749  0.46358953761218347  1.0000
  H   H994      1.0  0.6751222220289794  0.8934969695768379  0.4997513144916551  1.0000
  H   H995      1.0  0.7609300333144426  0.9516462534559197  0.47063008010122415  1.0000
  H   H996      1.0  0.7322927069772418  0.9797943686045284  0.43281265514575207  1.0000
  H   H997      1.0  0.7936417361478185  0.8823559799599812  0.5426386569091234  1.0000
  H   H998      1.0  0.8373457553398609  0.9309203452011016  0.5592557101597125  1.0000
  H   H999      1.0  0.7892106913552314  0.04340711476547023  0.529896223972979  1.0000
  H   H1000     1.0  0.7448278017672489  0.9960887314229954  0.5152942155758635  1.0000
  H   H1001     1.0  0.6929193919761645  0.9600142326357913  0.5380230331265174  1.0000
  H   H1002     1.0  0.6597700478571991  0.9481388996723917  0.5759595839801408  1.0000
  H   H1003     1.0  0.7153263097432586  0.8339086143108528  0.5941495029029302  1.0000
  H   H1004     1.0  0.7437885753344273  0.8409961567862815  0.5529279039765599  1.0000
  C   C1373     1.0  0.7338542545632593  0.6513331817305911  0.23351906570475556  1.0000
  C   C1374     1.0  0.715367411328022  0.6815945534676721  0.22046771306662574  1.0000
  C   C1375     1.0  0.7228193530695667  0.7256288493885209  0.2226119792333482  1.0000
  C   C1376     1.0  0.749226147122199  0.74022000760996  0.2376460713966394  1.0000
  C   C1377     1.0  0.7697644784288421  0.7080875569049594  0.24701663569019763  1.0000
  C   C1378     1.0  0.7616831814392984  0.6645996989446759  0.245478094429329  1.0000
  H   H1005     1.0  0.6960147574454603  0.671832180467034  0.20749510466625695  1.0000
  H   H1006     1.0  0.7079977737982094  0.7498966990091177  0.21331612101151193  1.0000
  H   H1007     1.0  0.7921417665947881  0.7171408475981316  0.255844066651507  1.0000
  H   H1008     1.0  0.7778230787500285  0.6409380936554744  0.2539945866056334  1.0000
  C   C1379     1.0  0.7872640634013822  0.7868773757930905  0.2889489518394365  1.0000
  C   C1380     1.0  0.78218476640633  0.8075380992568081  0.26457256254486017  1.0000
  C   C1381     1.0  0.7959640920985807  0.8492426884886438  0.2616307585854302  1.0000
  C   C1382     1.0  0.8126300119849136  0.869793171432947  0.2819043711843568  1.0000
  C   C1383     1.0  0.813076297000241  0.8519260147567019  0.3069167716300795  1.0000
  C   C1384     1.0  0.8015916187630319  0.8096958066104212  0.3099655869895437  1.0000
  C   C1385     1.0  0.754887886425623  0.7916110396260907  0.24338430533809438  1.0000
  C   C1386     1.0  0.7242435891202788  0.8117631622900544  0.25914324830539065  1.0000
  C   C1387     1.0  0.7185883174628981  0.8573135365210408  0.25997309142641034  1.0000
  C   C1388     1.0  0.7030621996352203  0.877288033892276  0.28158939423331286  1.0000
  C   C1389     1.0  0.6931614380103622  0.85220988207837  0.3024485409078981  1.0000
  C   C1390     1.0  0.693376143341984  0.8066361307814074  0.3001589007637707  1.0000
  C   C1391     1.0  0.7097387712868358  0.7872592086411796  0.27931590675334156  1.0000
  C   C1392     1.0  0.7932259178171555  0.7943794499635175  0.20229596589101184  1.0000
  C   C1393     1.0  0.8050806594295982  0.8185985674731375  0.1818549713097677  1.0000
  C   C1394     1.0  0.7882427198964272  0.8529405508287882  0.170688230762051  1.0000
  C   C1395     1.0  0.7578640523211854  0.8608646434718942  0.18045776586026493  1.0000
  C   C1396     1.0  0.7449795693554045  0.8358521203295858  0.2004697052998627  1.0000
  C   C1397     1.0  0.7639252607460449  0.805920503212062  0.2138269490154486  1.0000
  C   C1398     1.0  0.8056079341268821  0.8840808983972447  0.15000635957657898  1.0000
  C   C1399     1.0  0.871385289220548  0.9489335116831151  0.20847234084770108  1.0000
  C   C1400     1.0  0.8834118255991459  0.9244193110392502  0.18737110611907629  1.0000
  C   C1401     1.0  0.863874067559061  0.9029307507046787  0.16919209024459214  1.0000
  C   C1402     1.0  0.8309669720060774  0.9086526501405151  0.17002213527391377  1.0000
  C   C1403     1.0  0.8196384439461251  0.9367495232350566  0.19064202061068677  1.0000
  C   C1404     1.0  0.8395868269186009  0.9566779666664903  0.20928401222154516  1.0000
  C   C1405     1.0  0.7842109120018934  0.922413758892879  0.13635109920731298  1.0000
  C   C1406     1.0  0.7559339574485324  0.91333264215644  0.12402883744752918  1.0000
  C   C1407     1.0  0.7386571352961354  0.94505190339309  0.1110126168539389  1.0000
  C   C1408     1.0  0.7507883117630729  0.9876025612560716  0.10869935343848326  1.0000
  C   C1409     1.0  0.7793341384505877  0.9968565198399875  0.12109834035300852  1.0000
  C   C1410     1.0  0.7956395931116349  0.9655431621810723  0.13414000139264465  1.0000
  C   C1411     1.0  0.8424654641064016  0.8757650103008254  0.10894871019139307  1.0000
  C   C1412     1.0  0.8619488046230056  0.8507712143767113  0.09189916935802431  1.0000
  C   C1413     1.0  0.8611398106981413  0.8054990568452579  0.09112989872758999  1.0000
  C   C1414     1.0  0.8355822422999221  0.7856120760415125  0.1031785747382298  1.0000
  C   C1415     1.0  0.8151282057654448  0.810305831943305  0.11943380831172229  1.0000
  C   C1416     1.0  0.8204254635552564  0.8555318714491759  0.12520353994828165  1.0000
  H   H1009     1.0  0.7745930933481489  0.7564164539165459  0.293180949848335  1.0000
  H   H1010     1.0  0.7920625279669804  0.8681536174821253  0.24401627832320183  1.0000
  H   H1011     1.0  0.8218285367443313  0.9028255918221011  0.2789363191456732  1.0000
  H   H1012     1.0  0.8035210619656257  0.7929344226746526  0.3290378451918602  1.0000
  H   H1013     1.0  0.7308072903730077  0.878788065538563  0.2465784946749634  1.0000
  H   H1014     1.0  0.7031724478411103  0.9133231029826077  0.2841839159133866  1.0000
  H   H1015     1.0  0.686946538919184  0.7857094268257253  0.31668509527848177  1.0000
  H   H1016     1.0  0.71371074747908  0.7523563392085388  0.2804889939876784  1.0000
  H   H1017     1.0  0.8082009331807228  0.7693139365726366  0.21079630540316016  1.0000
  H   H1018     1.0  0.8289808603864423  0.8104649757000176  0.17561176470513262  1.0000
  H   H1019     1.0  0.7431925518017564  0.8878134165026904  0.1731186009926384  1.0000
  H   H1020     1.0  0.7209083716016715  0.8422733364818469  0.20732146352657888  1.0000
  H   H1021     1.0  0.9084252370899515  0.9176030421296492  0.18647745997463996  1.0000
  H   H1022     1.0  0.8741090859887938  0.8805768802520714  0.15414366259186238  1.0000
  H   H1023     1.0  0.7940498502002032  0.9438830417792595  0.19144137557811183  1.0000
  H   H1024     1.0  0.8294986282352573  0.9780597410018994  0.22488344763029994  1.0000
  H   H1025     1.0  0.7473069155142991  0.8798070328370774  0.12528511090226996  1.0000
  H   H1026     1.0  0.7156973612017152  0.9361148365415111  0.10246523270743599  1.0000
  H   H1027     1.0  0.790230089460924  0.028615669065564037  0.11868654568620066  1.0000
  H   H1028     1.0  0.8191389534383889  0.9754354709585302  0.14088232531970327  1.0000
  H   H1029     1.0  0.8461980438957928  0.9110667202058732  0.11070511051006714  1.0000
  H   H1030     1.0  0.878868735489142  0.8669552923923665  0.07927444896191754  1.0000
  H   H1031     1.0  0.8311483818004116  0.7498797468259619  0.10081059417294537  1.0000
  H   H1032     1.0  0.7959796737953205  0.7925665900877503  0.12964269587498217  1.0000
  C   C1417     1.0  0.6365970496698784  0.9001903324777746  0.40187626512077923  1.0000
  C   C1418     1.0  0.6445750883910585  0.855947520672742  0.4045273211253993  1.0000
  C   C1419     1.0  0.6225442207306159  0.8283524039606455  0.41583014786863115  1.0000
  C   C1420     1.0  0.594224594044832  0.8441874926595937  0.4262869788266872  1.0000
  C   C1421     1.0  0.5861456925980448  0.8883474330899376  0.4213483017609593  1.0000
  C   C1422     1.0  0.6071734503041796  0.9159879372909414  0.40960733400249316  1.0000
  H   H1033     1.0  0.668039322579102  0.8430363833534443  0.3991666557085932  1.0000
  H   H1034     1.0  0.6277771374550156  0.7932242169341632  0.41749387227670953  1.0000
  H   H1035     1.0  0.5639521002338048  0.9029780403175375  0.4286069052161072  1.0000
  H   H1036     1.0  0.6007933694039264  0.9506835301559216  0.4073600946017756  1.0000
  C   C1423     1.0  0.5975978164777769  0.8620979347416351  0.4863102788307594  1.0000
  C   C1424     1.0  0.5712103367958795  0.8409360205080608  0.474753047627069  1.0000
  C   C1425     1.0  0.5445088181754091  0.8365144841306568  0.4916103717569801  1.0000
  C   C1426     1.0  0.5426170919321087  0.8598985130962128  0.5159221503949319  1.0000
  C   C1427     1.0  0.568628355419547  0.8843685355307945  0.5253492490130366  1.0000
  C   C1428     1.0  0.5959515296030632  0.8844370077220366  0.5107593551140381  1.0000
  C   C1429     1.0  0.5738270178216885  0.8156048954107655  0.4460033245122283  1.0000
  C   C1430     1.0  0.5854847380868742  0.7677183658494425  0.45611287319092814  1.0000
  C   C1431     1.0  0.5620209415097163  0.7360756514742661  0.4603953482753145  1.0000
  C   C1432     1.0  0.5695450407780724  0.6943724186563605  0.4671108183982135  1.0000
  C   C1433     1.0  0.6006919903330902  0.6818853324275316  0.4705472976974241  1.0000
  C   C1434     1.0  0.6239633656214388  0.7138430560889  0.469660920251858  1.0000
  C   C1435     1.0  0.6166085073106199  0.7565242217140962  0.4630019844535053  1.0000
  C   C1436     1.0  0.5151421896942482  0.8338587593675572  0.4305331104167223  1.0000
  C   C1437     1.0  0.9867316178962288  0.842457914496074  0.3875569283463955  1.0000
  C   C1438     1.0  0.9877782162000576  0.8060111929656258  0.36962747113312305  1.0000
  C   C1439     1.0  0.5185924386275554  0.769313012486851  0.3911064762946987  1.0000
  C   C1440     1.0  0.5452762637264814  0.7814640959510006  0.4050583399595311  1.0000
  C   C1441     1.0  0.5434735247938995  0.8117070726084958  0.4263011124078238  1.0000
  C   C1442     1.0  0.9559664787437925  0.7820274177692171  0.3607960020057747  1.0000
  C   C1443     1.0  0.9308884279298568  0.7052815741775248  0.4304038891034735  1.0000
  C   C1444     1.0  0.9247634787418441  0.7500194897251622  0.43096115601685897  1.0000
  C   C1445     1.0  0.9332631136551476  0.7744077379687975  0.4092014983155711  1.0000
  C   C1446     1.0  0.950602383051352  0.755588418237522  0.3880879471805273  1.0000
  C   C1447     1.0  0.9622958006334399  0.7127802951255823  0.39105196105317186  1.0000
  C   C1448     1.0  0.9512583716414502  0.6868742342180423  0.4113154782370009  1.0000
  C   C1449     1.0  0.9573922168428595  0.753332330855995  0.3332859958649148  1.0000
  C   C1450     1.0  0.9729175683813359  0.765303801781073  0.3094971597290167  1.0000
  C   C1451     1.0  0.9661511519233724  0.7443810311237864  0.2852540299137283  1.0000
  C   C1452     1.0  0.9455564001792953  0.7090139146467888  0.28434948072098665  1.0000
  C   C1453     1.0  0.9306843467693741  0.6956903117468537  0.3071933860037528  1.0000
  C   C1454     1.0  0.936203457749198  0.7180289799174631  0.3310791381245875  1.0000
  C   C1455     1.0  0.8968052720624383  0.8038760257992627  0.3584134840427498  1.0000
  C   C1456     1.0  0.8735143610045274  0.8339364809020612  0.35413100895836347  1.0000
  C   C1457     1.0  0.8795472985688694  0.8708588291999666  0.3396279356292041  1.0000
  C   C1458     1.0  0.9101876498215271  0.8784451335864998  0.33096001222643623  1.0000
  C   C1459     1.0  0.9347939824621039  0.852029892118254  0.33898182906296004  1.0000
  C   C1460     1.0  0.928397622587874  0.8146053428883393  0.35338798640718283  1.0000
  H   H1037     1.0  0.6196404361232748  0.8624894311194048  0.4752840664612008  1.0000
  H   H1038     1.0  0.5240694725608384  0.8167090364591901  0.4854582257965251  1.0000
  H   H1039     1.0  0.5210798021708868  0.8601546433400934  0.5275197632590126  1.0000
  H   H1040     1.0  0.6159076525323596  0.9025319078673525  0.5188760688524789  1.0000
  H   H1041     1.0  0.5368696075709692  0.7429291998430254  0.45818445236894806  1.0000
  H   H1042     1.0  0.5500630327962703  0.6711474101329786  0.4692894089762677  1.0000
  H   H1043     1.0  0.6488941444760641  0.705414102658632  0.473402281087015  1.0000
  H   H1044     1.0  0.6352348090541361  0.7814890888093213  0.46391057181228595  1.0000
  H   H1045     1.0  0.5127628793103682  0.8601277650632776  0.445809492542355  1.0000
  H   H1046     1.0  0.9645539650486527  0.8590751717470586  0.39245118558569414  1.0000
  H   H1047     1.0  0.5213438920055324  0.7424169907417999  0.3765912884674222  1.0000
  H   H1048     1.0  0.5673861911230641  0.765441218963482  0.39989958284467636  1.0000
  H   H1049     1.0  0.9090429560822312  0.76374606076938  0.44657472500675033  1.0000
  H   H1050     1.0  0.9254000411700768  0.8086675801009716  0.4090096854287174  1.0000
  H   H1051     1.0  0.9765982404544765  0.6981720941246451  0.3749679457197341  1.0000
  H   H1052     1.0  0.9577442732954886  0.6522428762818718  0.4115072911238546  1.0000
  H   H1053     1.0  0.4948637736408995  0.7771089906303592  0.33972888978017973  1.0000
  H   H1054     1.0  0.9776797749131153  0.7556150923584699  0.26727005745892907  1.0000
  H   H1055     1.0  0.9134274786812092  0.6690187667513011  0.3067350541583234  1.0000
  H   H1056     1.0  0.920421047405639  0.7100307111769222  0.3475710082279669  1.0000
  H   H1057     1.0  0.8901173859535917  0.7734016161867036  0.3676346361928641  1.0000
  H   H1058     1.0  0.8502102250299186  0.8270713031976012  0.3617167038626725  1.0000
  H   H1059     1.0  0.915935923347933  0.9079881144478199  0.32036588362305335  1.0000
  H   H1060     1.0  0.9589765128327812  0.8601242840883281  0.3333082057781295  1.0000
  C   C1461     1.0  0.9343755749125762  0.9082103855631336  0.24601517051251937  1.0000
  C   C1462     1.0  0.9330790970463394  0.8734073015868768  0.22825935443892506  1.0000
  C   C1463     1.0  0.9601906327866134  0.8570212127052498  0.216754619393742  1.0000
  C   C1464     1.0  0.5302850448938922  0.8678592941153332  0.22579405407210013  1.0000
  C   C1465     1.0  0.527275067960888  0.9030006582611063  0.24486631227441666  1.0000
  C   C1466     1.0  0.9630324765272503  0.9226584228330246  0.2559066582251119  1.0000
  H   H1061     1.0  0.9098948850924825  0.862787335695746  0.22086749150448926  1.0000
  H   H1062     1.0  0.958214902986068  0.8331215825139177  0.20045799461834948  1.0000
  H   H1063     1.0  0.5475146488230829  0.9109485170545694  0.2575602872180927  1.0000
  H   H1064     1.0  0.9639967223214124  0.9498700134079507  0.27070855584115916  1.0000
  C   C1467     1.0  0.5784960310778485  0.9080224354933983  0.189928476671591  1.0000
  C   C1468     1.0  0.5871222927656674  0.8849727951919327  0.21241964815084832  1.0000
  C   C1469     1.0  0.6156413104848819  0.8964634581177623  0.22483902780387063  1.0000
  C   C1470     1.0  0.63657988581823  0.9246424007226686  0.2129123044076094  1.0000
  C   C1471     1.0  0.6275358972922833  0.9469923637332718  0.1902872677241584  1.0000
  C   C1472     1.0  0.5976527166693  0.9395401560882871  0.17949526898486326  1.0000
  C   C1473     1.0  0.5646223505524436  0.8443471368926792  0.22051213289305505  1.0000
  C   C1474     1.0  0.563003895507926  0.8051114992713048  0.19774374131521863  1.0000
  C   C1475     1.0  0.5827790742692859  0.8044331407651552  0.17551444490359214  1.0000
  C   C1476     1.0  0.5812916250092326  0.7707113674601094  0.15637010543747898  1.0000
  C   C1477     1.0  0.5616692540640489  0.7349636171076944  0.16047671839086577  1.0000
  C   C1478     1.0  0.5425196724624446  0.7341676066180123  0.18281181475271474  1.0000
  C   C1479     1.0  0.542616026978051  0.7693639390340253  0.20053653694780854  1.0000
  C   C1480     1.0  0.6063311803882482  0.7973270626005919  0.24443826667428  1.0000
  C   C1481     1.0  0.6138601359119664  0.7634162322576329  0.2613602014608155  1.0000
  C   C1482     1.0  0.5899677628062129  0.7435167911249443  0.27564521382386753  1.0000
  C   C1483     1.0  0.5621645494132773  0.767989060740319  0.28012555904416614  1.0000
  C   C1484     1.0  0.5553759091603392  0.8040323236663834  0.2651358867073042  1.0000
  C   C1485     1.0  0.5762437792757017  0.8165350187826652  0.24510254498769965  1.0000
  C   C1486     1.0  0.5911985117938361  0.6934552214202429  0.2851510566797331  1.0000
  C   C1487     1.0  0.6633864540389208  0.6121696922512914  0.24416367138362627  1.0000
  C   C1488     1.0  0.6562220755817285  0.6052968304063747  0.27087008248272015  1.0000
  C   C1489     1.0  0.630809698923344  0.6266470995695681  0.28289776002995703  1.0000
  C   C1490     1.0  0.6149443931646232  0.6603460547093235  0.26986861730504186  1.0000
  C   C1491     1.0  0.6221056801420547  0.6658616851805108  0.24266551178314785  1.0000
  C   C1492     1.0  0.6441937380273105  0.6395898567310017  0.22954954848839368  1.0000
  C   C1493     1.0  0.5588982550783564  0.6692086780258916  0.2779691783793266  1.0000
  C   C1494     1.0  0.5437522244879931  0.6770143576320169  0.25377450655650646  1.0000
  C   C1495     1.0  0.513287730774314  0.6621210583133086  0.24899937521535906  1.0000
  C   C1496     1.0  0.4971305508303392  0.6389920720254786  0.2687217781499587  1.0000
  C   C1497     1.0  0.5133682692869577  0.6262636167949663  0.2915253017723346  1.0000
  C   C1498     1.0  0.544255296727055  0.6403987001264971  0.29563615480006233  1.0000
  C   C1499     1.0  0.5792183797390984  0.7048913611831084  0.3368658300585108  1.0000
  C   C1500     1.0  0.5885880768516268  0.7002819630046349  0.3633198557801655  1.0000
  C   C1501     1.0  0.6199672191124401  0.6924870320482357  0.3694982498198743  1.0000
  C   C1502     1.0  0.642380132111809  0.6995305627579758  0.35003630859479185  1.0000
  C   C1503     1.0  0.6330267975308885  0.7042574115360981  0.32361055003541017  1.0000
  C   C1504     1.0  0.6010923959824047  0.7017896353546966  0.3161924390217207  1.0000
  H   H1065     1.0  0.5572393361016011  0.9006957715547966  0.1786403892344016  1.0000
  H   H1066     1.0  0.624613540901427  0.8815508574607066  0.24275637051902593  1.0000
  H   H1067     1.0  0.6600224457883436  0.9280136881226166  0.22153580798394792  1.0000
  H   H1068     1.0  0.591186030016358  0.9541901610673479  0.16066489692828434  1.0000
  H   H1069     1.0  0.6005447371256268  0.8300556352648768  0.17262594473587733  1.0000
  H   H1070     1.0  0.5975630988825928  0.7697563442408701  0.13959192936193274  1.0000
  H   H1071     1.0  0.5275953797966699  0.7060967586810802  0.18666442706224687  1.0000
  H   H1072     1.0  0.527855444580496  0.7659971976674788  0.21815586300928377  1.0000
  H   H1073     1.0  0.6234062516910545  0.806295184667536  0.22915178913354967  1.0000
  H   H1074     1.0  0.6370578561343926  0.7487343157733325  0.25961773281497613  1.0000
  H   H1075     1.0  0.5437338483333212  0.756078331075256  0.29332430474272037  1.0000
  H   H1076     1.0  0.5320177749805999  0.8190677558449593  0.2667794202851875  1.0000
  H   H1077     1.0  0.6694090754003827  0.5825250829510593  0.2831501454073961  1.0000
  H   H1078     1.0  0.6249882117380027  0.618921605380226  0.30335914734969827  1.0000
  H   H1079     1.0  0.607636740901394  0.6880977607255809  0.23069840672649639  1.0000
  H   H1080     1.0  0.6468615269581917  0.6427228898020174  0.20815332573061807  1.0000
  H   H1081     1.0  0.5540625385025414  0.6994685102998022  0.2397782230652448  1.0000
  H   H1082     1.0  0.990619387349605  0.6837250585668816  0.21958537378709875  1.0000
  H   H1083     1.0  0.5008464930966551  0.6092221666912986  0.3071691570075186  1.0000
  H   H1084     1.0  0.5557901502690512  0.6332527170894167  0.3141349934248373  1.0000
  H   H1085     1.0  0.554251732556595  0.7057309520551851  0.33257325955902683  1.0000
  H   H1086     1.0  0.5703529423193224  0.6987666956853623  0.37880016529076904  1.0000
  H   H1087     1.0  0.6675676680389757  0.6985517973526492  0.3550254627360076  1.0000
  H   H1088     1.0  0.6510111543361329  0.7078719525223576  0.30825946183805547  1.0000
  C   C1505     1.0  0.9394523552658872  0.6812902446505333  0.25863242030145395  1.0000
  C   C1506     1.0  0.9592522926086583  0.6385704459022589  0.25560581485520445  1.0000
  H   H1089     1.0  0.9137026547185227  0.672455891919348  0.25729578734253655  1.0000
  H   H1090     1.0  0.9433715727722775  0.703550309859532  0.2415489588733574  1.0000
  H   H1091     1.0  0.9502602475176628  0.6183483186812483  0.23817507114775174  1.0000
  H   H1092     1.0  0.9543196232573619  0.6172920795380578  0.2728245548456084  1.0000
  C   C1507     1.0  0.7251302942541075  0.6021923200721853  0.2350878932109169  1.0000
  C   C1508     1.0  0.6897849040816072  0.5869905791888238  0.22962021639407662  1.0000
  H   H1093     1.0  0.7407308016297718  0.5825086984299644  0.22128746077254788  1.0000
  H   H1094     1.0  0.7316858404991882  0.5912511700676455  0.25538169664003857  1.0000
  H   H1095     1.0  0.6889518094588386  0.552027333612555  0.23570371353186825  1.0000
  H   H1096     1.0  0.6855487351804154  0.5862147543185133  0.2077111465493448  1.0000
  C   C1509     1.0  0.9031615116752684  0.9324003450356785  0.2531930106468868  1.0000
  C   C1510     1.0  0.8931379131514495  0.9669277240047884  0.2316150704173551  1.0000
  H   H1097     1.0  0.9056248480416444  0.9517157315658664  0.27240256649453026  1.0000
  H   H1098     1.0  0.8845767860057712  0.9082069751726524  0.25766527953510737  1.0000
  H   H1099     1.0  0.915043638211766  0.9825346722078798  0.22377699013560698  1.0000
  H   H1100     1.0  0.88001134949591  0.9938796728772584  0.2427220461076942  1.0000
  C   C1511     1.0  0.8187118453704911  0.8834810840777522  0.33076416117354357  1.0000
  C   C1512     1.0  0.8524424440022809  0.9030043750431125  0.33337483551777336  1.0000
  H   H1101     1.0  0.8014331680599617  0.9109106218545361  0.3291771619202066  1.0000
  H   H1102     1.0  0.8113283709159856  0.867823393259009  0.3498868964513479  1.0000
  H   H1103     1.0  0.8577735490585809  0.9202385836731186  0.31461755426650084  1.0000
  H   H1104     1.0  0.8518362449464046  0.930775875359419  0.3483705651036939  1.0000
  C   C1513     1.0  0.6591886355385913  0.6532017345518111  0.4027727379814428  1.0000
  C   C1514     1.0  0.6270388704479496  0.6757371227883902  0.3973414046589538  1.0000
  H   H1105     1.0  0.6659451130891926  0.6325604932705332  0.3853177652777559  1.0000
  H   H1106     1.0  0.6557095303556001  0.6292231497414806  0.418602348854422  1.0000
  H   H1107     1.0  0.6202568421546532  0.7017844669277344  0.41242193573169383  1.0000
  H   H1108     1.0  0.6089101021952298  0.6506880177495444  0.40126044479982786  1.0000
  C   C1515     1.0  0.6610423466749884  0.9361363001067836  0.3962268708321828  1.0000
  C   C1516     1.0  0.6680679602250533  0.9687933294882592  0.41988042840577355  1.0000
  H   H1109     1.0  0.683291781340762  0.9203092563839882  0.3886431950108933  1.0000
  H   H1110     1.0  0.650769315123711  0.9558537480778131  0.37945434818909113  1.0000
  H   H1111     1.0  0.6455466981602681  0.9848465905778193  0.4257438454944383  1.0000
  H   H1112     1.0  0.6816675550577816  0.9955094350266545  0.4103119939763031  1.0000
  C   C1517     1.0  0.8801589251131298  0.658225416387682  0.4339473798027182  1.0000
  C   C1518     1.0  0.9107953587421421  0.6764125643365094  0.44808499910534577  1.0000
  H   H1113     1.0  0.8726941295178878  0.628861789446773  0.4456560422328721  1.0000
  H   H1114     1.0  0.8857886386304114  0.6442395189089877  0.41360511838112823  1.0000
  H   H1115     1.0  0.9257409330578225  0.6472550564055443  0.4529368556012347  1.0000
  H   H1116     1.0  0.9043831153852934  0.6943809790538744  0.46735916560961355  1.0000
  C   C1519     1.0  0.7273596135436312  0.8819146615500298  0.3415682744109558  1.0000
  C   C1520     1.0  0.6929354421906022  0.8741597621219268  0.3306894551018215  1.0000
  H   H1117     1.0  0.7457739243001787  0.8806166813582513  0.32559530864359115  1.0000
  H   H1118     1.0  0.7287519994885496  0.9166685292539022  0.3491398357341282  1.0000
  H   H1119     1.0  0.6807020554145687  0.9062482131249353  0.3308025237509143  1.0000
  H   H1120     1.0  0.679470302153248  0.8530299748128077  0.3445645936119125  1.0000
  C   C1521     1.0  0.8660998779826008  0.02853993488625685  0.5242710586806169  1.0000
  C   C1522     1.0  0.8450451160000678  0.020488306972990266  0.5499093748623886  1.0000
  H   H1121     1.0  0.8579880843248231  0.007856895936916741  0.5070906812675836  1.0000
  H   H1122     1.0  0.8903054238477294  0.0158588081879254  0.527087679492837  1.0000
  H   H1123     1.0  0.8363551684240009  0.052013469737851724  0.5590033247822734  1.0000
  H   H1124     1.0  0.8608040426449715  0.0057681693763729225  0.5652342149804895  1.0000
  C   C1523     1.0  0.7328384109200612  0.022606435859294872  0.09158722103150961  1.0000
  C   C1524     1.0  0.7490255088738637  0.06611611994611895  0.08340044511229165  1.0000
  H   H1125     1.0  0.7088722917174027  0.02952734695987882  0.10046573479321261  1.0000
  H   H1126     1.0  0.7275087301679876  0.0048365871796578475  0.07183594520973098  1.0000
  H   H1127     1.0  0.7420853277263318  0.07185096099075435  0.06242459543917859  1.0000
  H   H1128     1.0  0.7750943504030167  0.059280480336645305  0.08156772345548001  1.0000
  C   C1525     1.0  0.7284676010503356  0.15358418332407944  0.3663646329735906  1.0000
  C   C1526     1.0  0.7296840903613854  0.13868305227106933  0.33603396785447154  1.0000
  H   H1129     1.0  0.7302089854457233  0.12349725723917308  0.37857604707560316  1.0000
  H   H1130     1.0  0.7042011378562469  0.1668891927181468  0.3704310661748891  1.0000
  H   H1131     1.0  0.7101788977928055  0.11524315008291566  0.33245009549483656  1.0000
  H   H1132     1.0  0.7506179249104858  0.11665289781370547  0.3326923854571781  1.0000
  C   C1527     1.0  0.5643904597751238  0.6925512228642199  0.14334782759483014  1.0000
  C   C1528     1.0  0.5856052247116107  0.658089307338719  0.1578329310851159  1.0000
  H   H1133     1.0  0.5407399914433115  0.677849244167821  0.1382728624252851  1.0000
  H   H1134     1.0  0.5757560950620345  0.7003432367570053  0.12365308609759788  1.0000
  H   H1135     1.0  0.5999481866986383  0.6739451214947975  0.17385556629476054  1.0000
  H   H1136     1.0  0.6030535064338876  0.6438239922791252  0.14343909014731213  1.0000
  C   C1529     1.0  0.9652883322108822  0.2906965773101252  0.3239214888204151  1.0000
  C   C1530     1.0  0.9326674245828049  0.27047104070672223  0.316004664300906  1.0000
  H   H1137     1.0  0.9721230128290616  0.2851382713106544  0.34500273462714676  1.0000
  H   H1138     1.0  0.984068855911561  0.2729114150992406  0.3119745745939588  1.0000
  H   H1139     1.0  0.9361617954157658  0.23476621813775578  0.3130951656697883  1.0000
  H   H1140     1.0  0.9258218319402097  0.28006870847744986  0.2957027845397063  1.0000
  C   C1531     1.0  0.8312848870063079  0.39548458368137335  0.3095294650573289  1.0000
  C   C1532     1.0  0.8296775666146546  0.44481092118136406  0.3024061401644883  1.0000
  H   H1141     1.0  0.831398578255951  0.39228110353292167  0.3315334318039779  1.0000
  H   H1142     1.0  0.8545645027773539  0.3804375355279611  0.303550960236552  1.0000
  H   H1143     1.0  0.8133689898360699  0.463696931496043  0.31589765290087185  1.0000
  H   H1144     1.0  0.8188029394600697  0.44726826750195603  0.2821406038976398  1.0000
  C   C1533     1.0  0.6228476333813406  0.36238556129088006  0.16802041636836892  1.0000
  C   C1534     1.0  0.6316719113670226  0.35293286058601536  0.1385654275548125  1.0000
  H   H1145     1.0  0.6457124534984489  0.3662804022191959  0.17919866568929685  1.0000
  H   H1146     1.0  0.6119857756523079  0.3321457541596807  0.17648037422012697  1.0000
  H   H1147     1.0  0.6357417277179689  0.3837976095875112  0.1275184186301529  1.0000
  H   H1148     1.0  0.6111519702658023  0.3369670808124548  0.12812252826959108  1.0000
  C   C1535     1.0  0.5991856506953555  0.6065479645892637  0.4945602520484881  1.0000
  C   C1536     1.0  0.6085701979072125  0.6322698727133559  0.46926719906305303  1.0000
  H   H1149     1.0  0.5746795668455902  0.6162755447024701  0.5001470547634796  1.0000
  H   H1150     1.0  0.6142386988856312  0.6179068303229666  0.5115064158312578  1.0000
  H   H1151     1.0  0.5949114696868577  0.6185412571619481  0.4516688714649808  1.0000
  H   H1152     1.0  0.6341816680555765  0.6263212277048623  0.4645284112162569  1.0000
  C   C1537     1.0  0.5456020462324719  0.6121768275032377  0.378311547200047  1.0000
  C   C1538     1.0  0.5139485206885842  0.5884592502786549  0.38420121236796545  1.0000
  H   H1153     1.0  0.5487583963991606  0.6366623246978372  0.39492860045063616  1.0000
  H   H1154     1.0  0.5436248411058223  0.6314704655277523  0.35996010163569647  1.0000
  H   H1155     1.0  0.4957453493573214  0.6138895347252908  0.38936198856583976  1.0000
  H   H1156     1.0  0.5159518302651669  0.5698071840553904  0.4031361729249551  1.0000
  C   C1539     1.0  0.6041553221582207  0.3664057099553989  0.2519391600917695  1.0000
  C   C1540     1.0  0.5895953183195507  0.3548395724535186  0.2795561776326636  1.0000
  H   H1157     1.0  0.5887756906860017  0.35628039750347784  0.23463763769756557  1.0000
  H   H1158     1.0  0.6051649343506167  0.40327032012786973  0.25162620222374504  1.0000
  H   H1159     1.0  0.591110670614705  0.3194022213718718  0.283453007860323  1.0000
  H   H1160     1.0  0.5639487199240923  0.36101107100672647  0.2779267776359169  1.0000
  C   C1541     1.0  0.49320351418647246  0.31654505805217015  0.5079810968791887  1.0000
  C   C1542     1.0  0.9804452535594426  0.32930332802517226  0.48454560027170535  1.0000
  H   H1161     1.0  0.48047282900440724  0.3328809228545711  0.5255309664847927  1.0000
  H   H1162     1.0  0.4975859806415605  0.28147484084239976  0.5134023347865802  1.0000
  H   H1163     1.0  0.9915320050273724  0.31677067527386643  0.4651886513636375  1.0000
  H   H1164     1.0  0.9723941533121229  0.36360114149564693  0.48127064761405575  1.0000
  C   C1543     1.0  0.7881554045971317  0.47719936974465743  0.3938241620389627  1.0000
  C   C1544     1.0  0.7750515826862701  0.502722458110286  0.36929836060094257  1.0000
  H   H1165     1.0  0.7717413947403049  0.4804968527309577  0.4112387530822594  1.0000
  H   H1166     1.0  0.8095829259861841  0.49620116470315967  0.4004427161769252  1.0000
  H   H1167     1.0  0.7819002782875342  0.5374215062478233  0.37190903494517236  1.0000
  H   H1168     1.0  0.7870119159748198  0.4936651064957432  0.3501211100816113  1.0000
  C   C1545     1.0  0.5883113773967042  0.8848155495563127  0.5733973676283792  1.0000
  C   C1546     1.0  0.5672483401450348  0.9078722559391803  0.5528572360708769  1.0000
  H   H1169     1.0  0.605434522793188  0.9096669597983723  0.5808114404760297  1.0000
  H   H1170     1.0  0.6038462421214622  0.8588313583574817  0.5635906814026063  1.0000
  H   H1171     1.0  0.5764801544078095  0.9417038326969049  0.550230409062491  1.0000
  H   H1172     1.0  0.5428776494683135  0.913063649999612  0.5609053009866544  1.0000
  C   C1547     1.0  0.6531815464984897  0.9717169691266389  0.17431208096547232  1.0000
  C   C1548     1.0  0.6500940646916961  0.9746346161511266  0.1432105299495033  1.0000
  H   H1173     1.0  0.6531611367981396  0.005845408035836108  0.18357967202503542  1.0000
  H   H1174     1.0  0.677299128223653  0.9585587875298885  0.17918332065834855  1.0000
  H   H1175     1.0  0.6704585578813552  0.9934056670965887  0.13577990062109282  1.0000
  H   H1176     1.0  0.6297152230481012  0.9970965626480601  0.13915661506292581  1.0000
  C   C1549     1.0  0.6634507691497548  0.766859193023627  0.8624775598640839  1.0000
  C   C1550     1.0  0.6660682730861988  0.7845976642710865  0.8333179628962822  1.0000
  H   H1177     1.0  0.6835141459777889  0.7432618367097398  0.8657484743556946  1.0000
  H   H1178     1.0  0.6423049558038274  0.7451921534987458  0.8636627615965379  1.0000
  H   H1179     1.0  0.6728001735359043  0.7548984832011594  0.8206017780393915  1.0000
  H   H1180     1.0  0.6877096252402631  0.8062590301212673  0.8323609175450332  1.0000
  C   C1551     1.0  0.8824284969178193  0.7765726104931954  0.072237742730614  1.0000
  C   C1552     1.0  0.9196090604575904  0.7790754137253727  0.07477027856198872  1.0000
  H   H1181     1.0  0.8760225710206366  0.7408818718119123  0.07427661276371786  1.0000
  H   H1182     1.0  0.8747702355022923  0.7824674639187577  0.05129924609336191  1.0000
  H   H1183     1.0  0.929191630490736  0.7451395732642773  0.06994588159516518  1.0000
  H   H1184     1.0  0.9269639809851093  0.7861911886826752  0.09607523876728233  1.0000
  C   C1553     1.0  0.946543559326641  0.819288518350551  0.8220938803908113  1.0000
  C   C1554     1.0  0.9495538695060807  0.8261047578774234  0.7917066809471459  1.0000
  H   H1185     1.0  0.9251423608298652  0.7994210401800267  0.8265742256111099  1.0000
  H   H1186     1.0  0.9669009585140331  0.798337271450756  0.8282581408493835  1.0000
  H   H1187     1.0  0.9306518290373643  0.8495809640434017  0.7856252028923737  1.0000
  H   H1188     1.0  0.9451586159552353  0.7944801714017913  0.7804159687020312  1.0000
  C   C1555     1.0  0.7867755179402233  0.8430465107423499  0.022073625110822094  1.0000
  C   C1556     1.0  0.7853908798614181  0.7993713449116275  0.03811947977519111  1.0000
  H   H1189     1.0  0.7732120931221058  0.8699822357296731  0.03353494987108568  1.0000
  H   H1190     1.0  0.7730957354135543  0.8380644095268366  0.003212381274874828  1.0000
  H   H1191     1.0  0.8026135021926356  0.8027721224408919  0.05498891840321934  1.0000
  H   H1192     1.0  0.7924187804488139  0.7701858847950092  0.025879798510905397  1.0000
  C   C1557     1.0  0.6014352203160703  0.05324048859088808  0.9246814695292298  1.0000
  C   C1558     1.0  0.568587692293126  0.06575739582159405  0.9357844070535299  1.0000
  H   H1193     1.0  0.6161854620676063  0.08297219081315377  0.9284147540323087  1.0000
  H   H1194     1.0  0.6008492248744587  0.049723063499723504  0.9023948311598492  1.0000
  H   H1195     1.0  0.5627862363212974  0.09945330927819342  0.9282915899681184  1.0000
  H   H1196     1.0  0.570678788859077  0.07221635619336644  0.9577580875548861  1.0000
  C   C1559     1.0  0.6815167515275244  0.8665740533215677  0.6398958668760284  1.0000
  C   C1560     1.0  0.6659801584083033  0.8867069183248265  0.6150248022416716  1.0000
  H   H1197     1.0  0.6956890311883525  0.8368508909081318  0.6332672173229684  1.0000
  H   H1198     1.0  0.6616403747774793  0.8520957606474384  0.6515661667288116  1.0000
  H   H1199     1.0  0.655375497861847  0.9188232216684484  0.6205752614623118  1.0000
  H   H1200     1.0  0.6456907072653839  0.8642504645881122  0.6099690183608119  1.0000
  C   C1561     1.0  0.804532699037673  0.8435555212338727  0.898298111713258  1.0000
  C   C1562     1.0  0.8093777719228523  0.877307725548487  0.9226563292606587  1.0000
  H   H1201     1.0  0.7892895253451824  0.8158630234261851  0.9040969181452982  1.0000
  H   H1202     1.0  0.8274591107037061  0.8292819923788116  0.8914312103638955  1.0000
  H   H1203     1.0  0.8250308209995836  0.8628750992178159  0.9382638410014914  1.0000
  H   H1204     1.0  0.8217095837094521  0.9070938981581282  0.9154825272923303  1.0000
  C   C1563     1.0  0.6124088049911651  0.029019322692116673  0.8473223227196219  1.0000
  C   C1564     1.0  0.5922001026358608  0.03607642424019851  0.8219828308247382  1.0000
  H   H1205     1.0  0.6128072303426303  0.06092013636585573  0.8587866761044147  1.0000
  H   H1206     1.0  0.6009700383742684  0.004555194848873789  0.8602343586294054  1.0000
  H   H1207     1.0  0.6051666814049693  0.05527654415950142  0.8067407731104372  1.0000
  H   H1208     1.0  0.571951929275764  0.057461543127614485  0.8282399691022079  1.0000
  C   C1565     1.0  0.897923200029239  0.9310639448268858  0.7007651626652764  1.0000
  C   C1566     1.0  0.913884545393594  0.8884999631587107  0.7117469552084057  1.0000
  H   H1209     1.0  0.9130516801369674  0.959854060547082  0.7063337936330923  1.0000
  H   H1210     1.0  0.8983036400580977  0.9280103019887614  0.6787389860054129  1.0000
  H   H1211     1.0  0.8966319764608919  0.8605783746223091  0.7090797465396295  1.0000
  H   H1212     1.0  0.9170436520730024  0.8908226789150847  0.733956868423045  1.0000
  C   C1567     1.0  0.8187624949375238  0.10730202333222967  0.8964102690900136  1.0000
  C   C1568     1.0  0.8535561111858562  0.11775480143553183  0.8879260822420215  1.0000
  H   H1213     1.0  0.8190511272399087  0.09558005409221804  0.9171624043645648  1.0000
  H   H1214     1.0  0.8044452641195182  0.13798328833421142  0.8971391580600577  1.0000
  H   H1215     1.0  0.8627211800656437  0.1457236248055468  0.9006806296762829  1.0000
  H   H1216     1.0  0.8529120356420479  0.13242737282325076  0.8673758552694216  1.0000
  C   C1569     1.0  0.7927756435094818  0.26975045491287875  0.5966713375943016  1.0000
  C   C1570     1.0  0.801753815180748  0.31489016134123177  0.608390095439553  1.0000
  H   H1217     1.0  0.7670338063488432  0.26952437192925827  0.5926654768835885  1.0000
  H   H1218     1.0  0.7954637600096375  0.24355586220377753  0.6117619640821391  1.0000
  H   H1219     1.0  0.7816961235866462  0.33750890478590984  0.603120288758625  1.0000
  H   H1220     1.0  0.8234161325100002  0.3282898930820727  0.5981311346174092  1.0000
  C   C1571     1.0  0.7225940472846872  0.18889163163040873  0.7215758513473933  1.0000
  C   C1572     1.0  0.721326113357589  0.16570521130728552  0.6931007235232064  1.0000
  H   H1221     1.0  0.7269855728216018  0.16475060963312624  0.7373590233109238  1.0000
  H   H1222     1.0  0.6985137743073748  0.20150279121750284  0.7264902994168873  1.0000
  H   H1223     1.0  0.735830773189616  0.18497249106823693  0.6790115622130471  1.0000
  H   H1224     1.0  0.6972555212421297  0.1675339680312624  0.6848063304790484  1.0000
  C   C1573     1.0  0.868824205720801  0.3046640940895827  0.09721642448991089  1.0000
  C   C1574     1.0  0.8843763812433303  0.27144198639902384  0.07741547922585224  1.0000
  H   H1225     1.0  0.8656518791216489  0.3371016082386593  0.08761467519061847  1.0000
  H   H1226     1.0  0.8861667796702558  0.3107016849323133  0.1141700588798528  1.0000
  H   H1227     1.0  0.8796549782484313  0.23708683716497292  0.08388886129471176  1.0000
  H   H1228     1.0  0.9108041965949848  0.2742112477746392  0.07963788390542982  1.0000
  C   C1575     1.0  0.956654128568997  0.09535659679034592  0.00784641909461871  1.0000
  C   C1576     1.0  0.963289335374483  0.11340045280049955  0.9797418634713398  1.0000
  H   H1229     1.0  0.9384663778732414  0.11640842246101324  0.018537504064598608  1.0000
  H   H1230     1.0  0.9784034568705806  0.09817801236362238  0.02036305797669097  1.0000
  H   H1231     1.0  0.9586433836076854  0.08669470154611897  0.9645442255834682  1.0000
  H   H1232     1.0  0.9888311457246252  0.1194906841802781  0.976725353440188  1.0000
  C   C1577     1.0  0.7856911640342144  0.14316060213359166  0.7891767699236966  1.0000
  C   C1578     1.0  0.8148661259558196  0.11238720995381643  0.7845934514694028  1.0000
  H   H1233     1.0  0.7649324960474432  0.1215977414901275  0.785417237341364  1.0000
  H   H1234     1.0  0.7845807997503706  0.16580596688203636  0.7723537702051171  1.0000
  H   H1235     1.0  0.8105179451845583  0.09082251440921965  0.7665287156938231  1.0000
  H   H1236     1.0  0.8159981567293465  0.08882515791636651  0.8011701230596018  1.0000
  C   C1579     1.0  0.9060408342212904  0.42534771982598246  0.14520558588108376  1.0000
  C   C1580     1.0  0.9205409949476782  0.40190216811275553  0.12043971547204349  1.0000
  H   H1237     1.0  0.8922688389646418  0.40137243834324704  0.157012173837684  1.0000
  H   H1238     1.0  0.8883090425503064  0.4502553757860597  0.13874512594354912  1.0000
  H   H1239     1.0  0.9350722587887469  0.3738189306482881  0.12770922197549683  1.0000
  H   H1240     1.0  0.9026824472884233  0.38574092556484985  0.107047339711918  1.0000
  C   C1581     1.0  0.5700013256337059  0.6733777442071877  0.056430139862547475  1.0000
  C   C1582     1.0  0.5610834888993108  0.6381273195833981  0.07710817479028242  1.0000
  H   H1241     1.0  0.5481069939033846  0.6842678403363549  0.045541830863221576  1.0000
  H   H1242     1.0  0.5843246998338989  0.6572893422531443  0.039913838854632004  1.0000
  H   H1243     1.0  0.5438200170855634  0.6526129681434298  0.09187817089462139  1.0000
  H   H1244     1.0  0.5822715828353142  0.6323518453124841  0.08958429067615306  1.0000
  C   C1583     1.0  0.49594333584920314  0.24073945099225194  0.8987524053926483  1.0000
  C   C1584     1.0  0.5007910701336514  0.2683986791240257  0.8733927226675694  1.0000
  H   H1245     1.0  0.5023677210354384  0.20576267209556776  0.8934765414626619  1.0000
  H   H1246     1.0  0.9646147236758191  0.25015609538249095  0.9084217939730944  1.0000
  H   H1247     1.0  0.5007256639574518  0.3044367525553074  0.8783596668955704  1.0000
  H   H1248     1.0  0.5248674436235404  0.2620655357844522  0.8647550855100942  1.0000
  C   C1585     1.0  0.9269371241474822  0.42837599016767675  0.9176348697911306  1.0000
  C   C1586     1.0  0.9244904341796271  0.4720001840263348  0.9356874910685933  1.0000
  H   H1249     1.0  0.9524446072263651  0.4214708395670482  0.9137037151521396  1.0000
  H   H1250     1.0  0.9167188070964253  0.43703321303256565  0.8981365850716969  1.0000
  H   H1251     1.0  0.8992689593615149  0.4784977015802306  0.9402506186926919  1.0000
  H   H1252     1.0  0.9302379792029886  0.500275178794384  0.9230641840306002  1.0000
  C   C1587     1.0  0.6801990677309269  0.21400031873288802  0.0019056166110651017  1.0000
  C   C1588     1.0  0.6778308149110644  0.17849683927652343  0.9790937378220763  1.0000
  H   H1253     1.0  0.7045855740873007  0.22819476262611152  0.0024234245850002583  1.0000
  H   H1254     1.0  0.6777869313854609  0.19875467690048265  0.02166778942390005  1.0000
  H   H1255     1.0  0.687730726154475  0.14749116736560205  0.9855850897298095  1.0000
  H   H1256     1.0  0.6531954054949577  0.17113311359582434  0.9751524877679876  1.0000
  C   C1589     1.0  0.6960761869748914  0.32474123853000797  0.5825115083784593  1.0000
  C   C1590     1.0  0.7034828180684913  0.3379038100179685  0.5531378886105892  1.0000
  H   H1257     1.0  0.7164607528505075  0.30636981980709316  0.5901416231091976  1.0000
  H   H1258     1.0  0.6765159791532132  0.30032730804499863  0.5818310774008836  1.0000
  H   H1259     1.0  0.7143373190765049  0.3082895400211262  0.5429253666978943  1.0000
  H   H1260     1.0  0.7225908957231285  0.36323722286600896  0.5534225793163405  1.0000
  C   C1591     1.0  0.5593889251639782  0.6207089962561352  0.6561696760133003  1.0000
  C   C1592     1.0  0.578749942361992  0.60200890812082  0.6320699010923975  1.0000
  H   H1261     1.0  0.5725964598473307  0.6158142265573114  0.674922919098534  1.0000
  H   H1262     1.0  0.5374566781486164  0.6011279702970898  0.6584552779913888  1.0000
  H   H1263     1.0  0.5927974340393097  0.6292509305892733  0.6233716914443369  1.0000
  H   H1264     1.0  0.562452489288872  0.5923549616580576  0.6154690005059644  1.0000
  C   C1593     1.0  0.5512407703540994  0.4267978732049092  0.8618193387997228  1.0000
  C   C1594     1.0  0.5773504378634674  0.4503162036425382  0.8792985404996438  1.0000
  H   H1265     1.0  0.5313901687099183  0.44967920414428997  0.8577953063418341  1.0000
  H   H1266     1.0  0.5386415778906262  0.4010793300518087  0.8733806081694524  1.0000
  H   H1267     1.0  0.569724065917303  0.4853638337241251  0.8846894921617428  1.0000
  H   H1268     1.0  0.5999951436380352  0.4545133331137794  0.8678059199525779  1.0000
  C   C1595     1.0  0.7466353045402518  0.40567996936574247  0.8154632117547318  1.0000
  C   C1596     1.0  0.7423877189205494  0.4157522043881018  0.8460119378399582  1.0000
  H   H1269     1.0  0.7651189138905723  0.37957138068283214  0.8117945379082773  1.0000
  H   H1270     1.0  0.7566853896221672  0.4356343557230272  0.8066741433707932  1.0000
  H   H1271     1.0  0.7619113127897679  0.4385381796521327  0.8523397440231109  1.0000
  H   H1272     1.0  0.720968803123224  0.43590494026154514  0.851241362860496  1.0000
  C   C1597     1.0  0.5700831783986928  0.18355677218261143  0.7446519511774035  1.0000
  C   C1598     1.0  0.5404770694230115  0.17893953490007664  0.7252909641032966  1.0000
  H   H1273     1.0  0.5895784507865566  0.16229334789732588  0.7365069702766894  1.0000
  H   H1274     1.0  0.5639284410070653  0.16921674703059078  0.7642209038025201  1.0000
  H   H1275     1.0  0.5386332098921507  0.1439098228062128  0.7186239519728659  1.0000
  H   H1276     1.0  0.5445273097503014  0.19646865555834087  0.7064509004482241  1.0000
  C   C1599     1.0  0.7929660389807279  0.5146132725415093  0.7442239055772668  1.0000
  C   C1600     1.0  0.7779959068252585  0.5293095392874512  0.717691135617851  1.0000
  H   H1277     1.0  0.7756810523651562  0.5197311231048363  0.7609297984807145  1.0000
  H   H1278     1.0  0.8113355798118438  0.5387831042670564  0.7500792463338536  1.0000
  H   H1279     1.0  0.79628348936285  0.5243339904385009  0.7014637653900279  1.0000
  H   H1280     1.0  0.7744240077488486  0.5655184126700399  0.719203428799466  1.0000
