data_image0
_chemical_formula_structural       C6H4C38H24C6H4C38H24C6H4C38H24C6H4C38H24C6H4C38H24C6H4C38H24C6H4C38H24C6H4C38H24C6H4C38H24C6H4C38H24C6H4C38H24C6H4C38H24C6H4C38H24C6H4C38H24C6H4C38H24C6H4C38H24C2H4C2H4C2H4C2H4C2H4C2H4C2H4C2H4C2H4C2H4C2H4C2H4C2H4C2H4C2H4C2H4C2H4C2H4C2H4C2H4C2H4C2H4C2H4C2H4C2H4C2H4C2H4C2H4C2H4C2H4C2H4C2H4C2H4C2H4C2H4C2H4C2H4C2H4C2H4C2H4C2H4C2H4C2H4C2H4C2H4C2H4C2H4C2H4C6H4C38H24C6H4C38H24C6H4C38H24C6H4C38H24C6H4C38H24C6H4C38H24C6H4C38H24C6H4C38H24C6H4C38H24C6H4C38H24C6H4C38H24C6H4C38H24C6H4C38H24C6H4C38H24C6H4C38H24C6H4C38H24C2H4C2H4C2H4C2H4C2H4C2H4C2H4C2H4C2H4C2H4C2H4C2H4C2H4C2H4C2H4C2H4C2H4C2H4C2H4C2H4C2H4C2H4C2H4C2H4C2H4C2H4C2H4C2H4C2H4C2H4C2H4C2H4C2H4C2H4C2H4C2H4C2H4C2H4C2H4C2H4C2H4C2H4C2H4C2H4C2H4C2H4C2H4C2H4
_chemical_formula_sum              "C1600 H1280"
_cell_length_a       39.97625665482012
_cell_length_b       28.733175651545746
_cell_length_c       47.22486579879042
_cell_angle_alpha    91.66720000053895
_cell_angle_beta     89.9185000002471
_cell_angle_gamma    89.81049999972008

_space_group_name_H-M_alt    "P 1"
_space_group_IT_number       1

loop_
  _space_group_symop_operation_xyz
  'x, y, z'

loop_
  _atom_site_type_symbol
  _atom_site_label
  _atom_site_symmetry_multiplicity
  _atom_site_fract_x
  _atom_site_fract_y
  _atom_site_fract_z
  _atom_site_occupancy
  C   C1        1.0  0.11300531684442135  0.2462271410525109  0.7723300281341724  1.0000
  C   C2        1.0  0.1329092556423694  0.254988749445453  0.795439956289036  1.0000
  C   C3        1.0  0.15139844902709612  0.29528572441371426  0.7979968985644892  1.0000
  C   C4        1.0  0.14698458097165465  0.3310530201977506  0.7792530499702797  1.0000
  C   C5        1.0  0.12486909101602162  0.32270009081561174  0.7567489921474622  1.0000
  C   C6        1.0  0.11002497133274428  0.2798765936189333  0.752609584354392  1.0000
  H   H1        1.0  0.13689018377605966  0.22919071460520749  0.8112052954886413  1.0000
  H   H2        1.0  0.1676996771615369  0.2991765598343024  0.815982350029774  1.0000
  H   H3        1.0  0.11989318986214303  0.3486782808536349  0.7414031016392734  1.0000
  H   H4        1.0  0.09674461279419998  0.2730465539622212  0.73307979907071  1.0000
  C   C7        1.0  0.22196301076720273  0.3545337669588596  0.8036912323146288  1.0000
  C   C8        1.0  0.19974084967864056  0.38855651627109145  0.7960331160546754  1.0000
  C   C9        1.0  0.2096997128741739  0.4343810935901829  0.800456393164159  1.0000
  C   C10       1.0  0.23939479623061216  0.44570888396471153  0.8127411555961007  1.0000
  C   C11       1.0  0.2610101823671993  0.4111649634552211  0.8204903642486345  1.0000
  C   C12       1.0  0.2517714949564995  0.3658175484765081  0.8165839835063513  1.0000
  C   C13       1.0  0.1621707657026883  0.3818298134857656  0.7839834991012551  1.0000
  C   C14       1.0  0.13764874534875224  0.40360754151309636  0.8080848514358303  1.0000
  C   C15       1.0  0.10745409374762627  0.4248234116436102  0.802769716250153  1.0000
  C   C16       1.0  0.09116421240713492  0.45178049722653724  0.8231150962115894  1.0000
  C   C17       1.0  0.10473180483933103  0.4555769584964034  0.850173773663425  1.0000
  C   C18       1.0  0.13190243245679595  0.42954686652361285  0.8567790313393681  1.0000
  C   C19       1.0  0.14644750191801445  0.4016338794890801  0.8363129009970695  1.0000
  C   C20       1.0  0.18501422904585274  0.39027634978312775  0.7335352610336117  1.0000
  C   C21       1.0  0.1901874707357464  0.41127253644843864  0.7083450368435409  1.0000
  C   C22       1.0  0.17538508517803428  0.45341278429850057  0.7028265325953588  1.0000
  C   C23       1.0  0.15705282382348956  0.474375749604725  0.7246060881330022  1.0000
  C   C24       1.0  0.15284732700314874  0.45304237213258225  0.7500229840906566  1.0000
  C   C25       1.0  0.1652606960232846  0.40989184078246577  0.7546475118349106  1.0000
  C   C26       1.0  0.18681754774919168  0.47892998266410197  0.6743633375555983  1.0000
  C   C27       1.0  0.2821507397217249  0.5299300311324456  0.7102283190994465  1.0000
  C   C28       1.0  0.28234341961254744  0.4926694130394994  0.6914463388060172  1.0000
  C   C29       1.0  0.253182826783722  0.47573639672793777  0.6801402899873805  1.0000
  C   C30       1.0  0.2226893852778463  0.49779561265651356  0.6860549402219006  1.0000
  C   C31       1.0  0.22366830503999227  0.5356205076863086  0.7051377372536185  1.0000
  C   C32       1.0  0.25261434963670304  0.5520720795399895  0.716928906023439  1.0000
  C   C33       1.0  0.16215178868017058  0.5197959803737796  0.6639597389518276  1.0000
  C   C34       1.0  0.12734284614346916  0.5174102015885144  0.6669064719304155  1.0000
  C   C35       1.0  0.10773489328349485  0.5566651992549636  0.6627691825650797  1.0000
  C   C36       1.0  0.12229338023835236  0.598119103435535  0.6549797237855918  1.0000
  C   C37       1.0  0.15624821223831237  0.5990390952522193  0.6492557320471701  1.0000
  C   C38       1.0  0.17543679290790742  0.560090543247015  0.6530328886976534  1.0000
  C   C39       1.0  0.21232371610628198  0.44204019152939567  0.6272410310310053  1.0000
  C   C40       1.0  0.21863111980629116  0.40303664541694073  0.6111664013821737  1.0000
  C   C41       1.0  0.19725175344992935  0.36570892954936124  0.6119756407767248  1.0000
  C   C42       1.0  0.16849055938002577  0.369013837795792  0.6280650994196975  1.0000
  C   C43       1.0  0.16358119679217026  0.4071843650862456  0.6457878658459133  1.0000
  C   C44       1.0  0.18779036045579212  0.4423167543908037  0.648014333394796  1.0000
  H   H5        1.0  0.2154736825282424  0.31895096777894993  0.7993823503028044  1.0000
  H   H6        1.0  0.19315531581364656  0.4632012648578245  0.7973931466601776  1.0000
  H   H7        1.0  0.24563939119578468  0.48157798389689643  0.816399680293456  1.0000
  H   H8        1.0  0.2692002330533066  0.3390118678550368  0.8227125949420484  1.0000
  H   H9        1.0  0.09692218283177793  0.42350407629387393  0.7818057553902641  1.0000
  H   H10       1.0  0.06802570685744379  0.46926356245994405  0.8183422785259256  1.0000
  H   H11       1.0  0.1407563529392769  0.4279580293674934  0.8782810728438016  1.0000
  H   H12       1.0  0.1672562751823555  0.3813561058518483  0.843312186231616  1.0000
  H   H13       1.0  0.19710222769254782  0.35724867601243276  0.7361515192856289  1.0000
  H   H14       1.0  0.20672129604340742  0.39642027369232563  0.6930266858958997  1.0000
  H   H15       1.0  0.14715518407130446  0.5099399618259046  0.7229812540606967  1.0000
  H   H16       1.0  0.13728547999451976  0.47086796990255364  0.7655108092570521  1.0000
  H   H17       1.0  0.30510579323655707  0.4739150666759513  0.6873937865500584  1.0000
  H   H18       1.0  0.2547683103445211  0.44340908009843344  0.6680885546062256  1.0000
  H   H19       1.0  0.20032863077261362  0.5514611266046825  0.711649784109247  1.0000
  H   H20       1.0  0.250879485579784  0.5812431254842864  0.7315354652523126  1.0000
  H   H21       1.0  0.11616504705601036  0.4856263606451649  0.6738591517548047  1.0000
  H   H22       1.0  0.08117659205047852  0.555031117186471  0.6664425362565759  1.0000
  H   H23       1.0  0.16907679600495465  0.6305353602027955  0.6434215820665583  1.0000
  H   H24       1.0  0.2017051041820274  0.5587311249855355  0.6475313318713466  1.0000
  H   H25       1.0  0.22946609600061332  0.470609873952482  0.6258534608649556  1.0000
  H   H26       1.0  0.24096127314426521  0.4000133117107203  0.5982355184912316  1.0000
  H   H27       1.0  0.14996408075639503  0.3418441184986764  0.6276371770173432  1.0000
  H   H28       1.0  0.14255130085555853  0.40593643652767825  0.6601550427407968  1.0000
  C   C45       1.0  0.1490308219940432  0.349639693734269  0.04300260010945288  1.0000
  C   C46       1.0  0.1556441037979653  0.39460865845717163  0.035146410856330565  1.0000
  C   C47       1.0  0.13094365645121633  0.42130053104247306  0.023537425737988338  1.0000
  C   C48       1.0  0.09960998031087977  0.4041040708486882  0.018584541694898205  1.0000
  C   C49       1.0  0.09218511451624697  0.3623827932059698  0.03016429251050527  1.0000
  C   C50       1.0  0.11615133294133632  0.3353986917529874  0.04229165576177921  1.0000
  H   H29       1.0  0.1810349588968155  0.40715720927158267  0.03627998153702242  1.0000
  H   H30       1.0  0.1378387065284444  0.4543514172139695  0.014915424858870763  1.0000
  H   H31       1.0  0.06740109536267229  0.3481015075740007  0.028072556965532104  1.0000
  H   H32       1.0  0.10967286608552282  0.30120713058083215  0.04979660969653354  1.0000
  C   C51       1.0  0.07119702011260043  0.3510412902436344  0.9670241290666808  1.0000
  C   C52       1.0  0.056084842513083655  0.3925996354415303  0.9760888813422935  1.0000
  C   C53       1.0  0.028574807238347343  0.4083394721050071  0.9612387029239609  1.0000
  C   C54       1.0  0.0176781154918777  0.38448036180094436  0.9378618528745594  1.0000
  C   C55       1.0  0.032193166023001464  0.3432178653912761  0.9298308933333469  1.0000
  C   C56       1.0  0.058157022123728586  0.32597151268407987  0.9450327307555947  1.0000
  C   C57       1.0  0.07360780697856195  0.4278483985695154  0.9985336231885471  1.0000
  C   C58       1.0  0.09120384582514535  0.45798189837789044  0.9749025618110145  1.0000
  C   C59       1.0  0.07582315528971573  0.4987534793454923  0.9662360739494739  1.0000
  C   C60       1.0  0.08294498855609442  0.5188176201933729  0.9409145072398687  1.0000
  C   C61       1.0  0.10775381982109182  0.49968822282971975  0.9239988617804694  1.0000
  C   C62       1.0  0.12601902541191703  0.46204359592135924  0.9337182082260204  1.0000
  C   C63       1.0  0.1171681592241311  0.4415611897263823  0.9584444967422516  1.0000
  C   C64       1.0  0.01698438326150449  0.4404231374113148  0.023937808579794995  1.0000
  C   C65       1.0  0.9937982859052478  0.4715489387553136  0.03502015256335871  1.0000
  C   C66       1.0  0.0031777813067761507  0.515802518527553  0.04450859038585701  1.0000
  C   C67       1.0  0.037508280105417124  0.5261283652614889  0.043921150375100415  1.0000
  C   C68       1.0  0.06003712625253754  0.4965245114699957  0.031034966309354747  1.0000
  C   C69       1.0  0.04952131560710827  0.4546359457059813  0.019554781597265647  1.0000
  C   C70       1.0  0.9757430357528247  0.5561066772970835  0.04760869753241739  1.0000
  C   C71       1.0  0.4456393933475502  0.5477357839836864  0.9624589172989906  1.0000
  C   C72       1.0  0.4260155855971408  0.5608628732673591  0.9853675948190836  1.0000
  C   C73       1.0  0.44121024239267653  0.5686641623669532  0.011167926196669509  1.0000
  C   C74       1.0  0.47500319293771537  0.5619732548268656  0.0159343885991301  1.0000
  C   C75       1.0  0.9751348772241417  0.5543747782227106  0.9925554201219943  1.0000
  C   C76       1.0  0.4797457494958179  0.543792940291829  0.9658865333732934  1.0000
  C   C77       1.0  0.9926939948928801  0.6057314076506697  0.05428047383922162  1.0000
  C   C78       1.0  0.004345966262125911  0.6135790630737927  0.08185075158892109  1.0000
  C   C79       1.0  0.017098725549485227  0.6559584611045848  0.09013782904322587  1.0000
  C   C80       1.0  0.020377968861074312  0.6912338565120723  0.07097643834256069  1.0000
  C   C81       1.0  0.00747583113005712  0.6850835810033541  0.04440372821300287  1.0000
  C   C82       1.0  0.9935895211602331  0.642829307296766  0.03604038736025873  1.0000
  C   C83       1.0  0.4409566117580601  0.5919684928990611  0.07665721415519999  1.0000
  C   C84       1.0  0.41517630328518107  0.5863005668378058  0.09509961048280065  1.0000
  C   C85       1.0  0.40945222471013304  0.54371663368872  0.106622798144216  1.0000
  C   C86       1.0  0.43258855505629557  0.5086049361855778  0.1026458737583763  1.0000
  C   C87       1.0  0.45909179956402446  0.5147109756660361  0.08506821963196873  1.0000
  C   C88       1.0  0.4628442969736902  0.5548503385992297  0.06980473596264915  1.0000
  H   H33       1.0  0.09413002014938796  0.33902660610686436  0.9763473295258936  1.0000
  H   H34       1.0  0.017124400452299873  0.44121130826484806  0.9663377584807264  1.0000
  H   H35       1.0  0.5033854904597876  0.4322550310193621  0.9252656815656568  1.0000
  H   H36       1.0  0.0709228812202151  0.2942573864712289  0.9383723939585562  1.0000
  H   H37       1.0  0.05481521514939242  0.5135157255336175  0.9774891620747499  1.0000
  H   H38       1.0  0.0671980842635586  0.5463531909548874  0.9334046809213251  1.0000
  H   H39       1.0  0.14580473344592632  0.44560880365637895  0.92111356320618  1.0000
  H   H40       1.0  0.13018996846953454  0.4099031541296125  0.9637342107951157  1.0000
  H   H41       1.0  0.00847879192860157  0.4065773533971758  0.016084796968274473  1.0000
  H   H42       1.0  0.9675077079257379  0.4620571752657767  0.03354509133187723  1.0000
  H   H43       1.0  0.04700080831576312  0.5597246730345665  0.050196357010019906  1.0000
  H   H44       1.0  0.0851839323751113  0.5092755542130725  0.02825219963741151  1.0000
  H   H45       1.0  0.3990722104946354  0.5631397880003747  0.9835648128170864  1.0000
  H   H46       1.0  0.42332160143680597  0.5760133014504232  0.027878084165829264  1.0000
  H   H47       1.0  0.0017609803616176478  0.5574419858334644  0.992504577856368  1.0000
  H   H48       1.0  0.49496364230403983  0.5337896334244662  0.947966753167776  1.0000
  H   H49       1.0  0.005229676389216564  0.5857735470840912  0.09696043740472128  1.0000
  H   H50       1.0  0.026414526480089563  0.6601707647404994  0.11148289505253832  1.0000
  H   H51       1.0  0.5498338236641982  0.6974532551608661  0.02302900308172595  1.0000
  H   H52       1.0  0.5200351126298622  0.6288287784833111  0.012049192134190978  1.0000
  H   H53       1.0  0.4433150424255142  0.624669799477688  0.06640190549283916  1.0000
  H   H54       1.0  0.39852624134973436  0.6159762323748057  0.09937226738036636  1.0000
  H   H55       1.0  0.43123687172375363  0.4772497901649617  0.11477810939343942  1.0000
  H   H56       1.0  0.9723906519833091  0.484468469406488  0.08815476884102881  1.0000
  C   C89       1.0  0.42529879571385504  0.4435200536340678  0.9452615209509128  1.0000
  C   C90       1.0  0.44081864826606376  0.4017791604578114  0.9399188462046879  1.0000
  C   C91       1.0  0.43655250457816236  0.3646997780758507  0.9573090194765987  1.0000
  C   C92       1.0  0.41670959846966965  0.3675043251482739  0.9808087383345969  1.0000
  C   C93       1.0  0.3983534960941487  0.4091379522999266  0.9845562369967982  1.0000
  C   C94       1.0  0.4030547323014966  0.44718813500231197  0.9673800249260645  1.0000
  H   H57       1.0  0.45546109545817254  0.3977938187689097  0.9209906943975833  1.0000
  H   H58       1.0  0.44985169191759905  0.3329837194836416  0.9522819904628037  1.0000
  H   H59       1.0  0.3805450928262347  0.4119808510461545  0.0015735669874497038  1.0000
  H   H60       1.0  0.38964313452946225  0.4792621842385378  0.9718075388910169  1.0000
  C   C95       1.0  0.4322792388195989  0.3691956695628811  0.04330256947664775  1.0000
  C   C96       1.0  0.41160747429439726  0.3344680573183223  0.03258417251154117  1.0000
  C   C97       1.0  0.39528506008644904  0.3065848578975297  0.05132357240750848  1.0000
  C   C98       1.0  0.39712338009736226  0.3160255025920237  0.07981176489453516  1.0000
  C   C99       1.0  0.41798687256119627  0.35011189318164715  0.09047614195241384  1.0000
  C   C100      1.0  0.4358829353196433  0.37664290461047645  0.0720333219392663  1.0000
  C   C101      1.0  0.4111073226520488  0.3230485320740952  0.9999042459327213  1.0000
  C   C102      1.0  0.43669615906348824  0.28036368234574444  6.100958506904952e-05  1.0000
  C   C103      1.0  0.4259172352072933  0.23494598199862404  0.0032937303078044433  1.0000
  C   C104      1.0  0.4470661234929769  0.19962589251031088  0.009295236079436053  1.0000
  C   C105      1.0  0.48089009886121126  0.20834538859658908  0.012502535669358439  1.0000
  C   C106      1.0  0.49339535783966165  0.2515077642842601  0.006320963540300539  1.0000
  C   C107      1.0  0.47095012346481246  0.28700915585542547  0.000406313305780559  1.0000
  C   C108      1.0  0.34607727494904145  0.33140128750167613  0.9978811474463436  1.0000
  C   C109      1.0  0.31732347472492967  0.33136396125001166  0.9825903360592501  1.0000
  C   C110      1.0  0.31421633579971303  0.3035818564324977  0.9580568244668515  1.0000
  C   C111      1.0  0.34130475702426777  0.2753333101420102  0.9504770900330719  1.0000
  C   C112      1.0  0.3713670083088435  0.28049465975077476  0.9643697391154438  1.0000
  C   C113      1.0  0.37473866882625123  0.30918362890925893  0.987998682065242  1.0000
  C   C114      1.0  0.2815028169012415  0.30969470026303436  0.9384528942124646  1.0000
  C   C115      1.0  0.20705954353300793  0.2859046705474295  0.0044631024172081535  1.0000
  C   C116      1.0  0.21112841404288385  0.3299561942165719  0.9938264767626506  1.0000
  C   C117      1.0  0.2347817135554125  0.33715234980817715  0.9733688201312894  1.0000
  C   C118      1.0  0.251749163979566  0.3010799841576137  0.9601625416348719  1.0000
  C   C119      1.0  0.24763659667727111  0.25696192699787174  0.971292760951551  1.0000
  C   C120      1.0  0.22546398381384417  0.24906285140487433  0.9931570535985715  1.0000
  C   C121      1.0  0.27773525817527467  0.2761026284308698  0.9102460289285699  1.0000
  C   C122      1.0  0.30344003590074237  0.2771618740799299  0.8911695871800552  1.0000
  C   C123      1.0  0.30193060131480437  0.2560025406549311  0.8651531761735578  1.0000
  C   C124      1.0  0.27554274064203066  0.22863180521419232  0.8575459021792307  1.0000
  C   C125      1.0  0.24815316438615326  0.22714361097434438  0.8750250494159874  1.0000
  C   C126      1.0  0.2491416430739296  0.25159420401599353  0.901236355774052  1.0000
  C   C127      1.0  0.25595446898799984  0.37568512312640473  0.9095151713601926  1.0000
  C   C128      1.0  0.259608853607988  0.4094458647054048  0.8902078209886254  1.0000
  C   C129      1.0  0.29065242665477464  0.42790329779612  0.8848503172482595  1.0000
  C   C130      1.0  0.31772322132246533  0.41366097969198323  0.9006961567017732  1.0000
  C   C131      1.0  0.3137149089145761  0.38103829015772817  0.9206072589776519  1.0000
  C   C132      1.0  0.28338317419708364  0.3584306254503327  0.9235497551007709  1.0000
  H   H61       1.0  0.444991519620983  0.39203568963764146  0.02901250335129734  1.0000
  H   H62       1.0  0.3801959447000769  0.27751598878066985  0.043416117203213034  1.0000
  H   H63       1.0  0.3820813733642685  0.29667365431037895  0.09413509033531606  1.0000
  H   H64       1.0  0.4499217948458818  0.4062259991243803  0.08048309464357506  1.0000
  H   H65       1.0  0.3996839874572334  0.2267047891299743  0.004636813491431191  1.0000
  H   H66       1.0  0.43650658564034683  0.16559785539872166  0.013233393237735758  1.0000
  H   H67       1.0  0.5199112946116112  0.25805690046261387  0.007358993130169855  1.0000
  H   H68       1.0  0.4796620873581442  0.3222806590373607  5.4654301865575405e-05  1.0000
  H   H69       1.0  0.346897258002563  0.354430395344938  0.016216139487808867  1.0000
  H   H70       1.0  0.2982280932097204  0.3556077767185968  0.9894074365086358  1.0000
  H   H71       1.0  0.33923153531289757  0.24920463500006257  0.9335466155795318  1.0000
  H   H72       1.0  0.3933759544044144  0.26299602686736506  0.9558494227675786  1.0000
  H   H73       1.0  0.1979802614424746  0.3601655184498214  0.0017621070558138108  1.0000
  H   H74       1.0  0.24029540960742182  0.37281557536234783  0.9676215256877891  1.0000
  H   H75       1.0  0.26249107067844896  0.22803601978463972  0.9634418677677649  1.0000
  H   H76       1.0  0.22310388868703618  0.2144575862112135  0.0015883959815907733  1.0000
  H   H77       1.0  0.3256162530718847  0.2980614466419736  0.8955123640356304  1.0000
  H   H78       1.0  0.3239391311805766  0.2587783756281164  0.8520168057923763  1.0000
  H   H79       1.0  0.2266942724135981  0.20656329191767495  0.8680575405974572  1.0000
  H   H80       1.0  0.22649906705802123  0.2535714566184934  0.9140020013017087  1.0000
  H   H81       1.0  0.23223532636505284  0.3586147563201382  0.9115213224246947  1.0000
  H   H82       1.0  0.23826464610296721  0.41576664417758197  0.8771201744453356  1.0000
  H   H83       1.0  0.34277539654774625  0.426593004662739  0.8974041200024737  1.0000
  H   H84       1.0  0.3374721102131565  0.36926080264137806  0.9294686421907599  1.0000
  C   C133      1.0  0.31750640271198266  0.45966081838266204  0.7473071597351213  1.0000
  C   C134      1.0  0.288188476672228  0.436280500669117  0.7524104521473558  1.0000
  C   C135      1.0  0.28746248352958087  0.3888285408952812  0.7499085889929975  1.0000
  C   C136      1.0  0.31396852916837353  0.36395159998980714  0.7387677775376462  1.0000
  C   C137      1.0  0.3424316403385375  0.3886232175199249  0.7314253070101225  1.0000
  C   C138      1.0  0.3443594939430805  0.43592694883784283  0.7364311517465734  1.0000
  H   H85       1.0  0.2664110227309076  0.45489909458311173  0.7600283182803551  1.0000
  H   H86       1.0  0.26384200403271835  0.37483282996371675  0.7571790329775508  1.0000
  H   H87       1.0  0.3640957320353064  0.36940824348395906  0.7236358482306346  1.0000
  H   H88       1.0  0.367319861678786  0.45420321693093774  0.7318701768343522  1.0000
  C   C139      1.0  0.29823630163079806  0.31759912390298606  0.6825044553390011  1.0000
  C   C140      1.0  0.3118041453526188  0.29037174502907337  0.7032841129859949  1.0000
  C   C141      1.0  0.3170346400132611  0.24357038930917085  0.696615302478019  1.0000
  C   C142      1.0  0.3049017457199066  0.22358972410564132  0.671702592321158  1.0000
  C   C143      1.0  0.29093830004269877  0.25176784897493637  0.6512851858167512  1.0000
  C   C144      1.0  0.2883234301984127  0.2984180652167869  0.6572316124672876  1.0000
  C   C145      1.0  0.312533583494187  0.30797252419723403  0.7355456489535829  1.0000
  C   C146      1.0  0.27835840835774744  0.2820701656243568  0.7438392935338644  1.0000
  C   C147      1.0  0.28050699555952247  0.2397309831536592  0.7577001662002198  1.0000
  C   C148      1.0  0.2540100297181689  0.210966991855311  0.7604244642666929  1.0000
  C   C149      1.0  0.22455613975562866  0.22355269473546385  0.7480719121472494  1.0000
  C   C150      1.0  0.22050944127253422  0.26553920687956073  0.7351473845395107  1.0000
  C   C151      1.0  0.24737244262231706  0.2944730833902992  0.733035312088287  1.0000
  C   C152      1.0  0.3734126094860469  0.27456687162904714  0.7408904421275421  1.0000
  C   C153      1.0  0.3981053105605091  0.25330761408938546  0.7557554495400159  1.0000
  C   C154      1.0  0.39820410245053345  0.2542770842842496  0.784911370448934  1.0000
  C   C155      1.0  0.3721064961818482  0.2782088707346946  0.7984629526660632  1.0000
  C   C156      1.0  0.34602360349916017  0.29647287799860744  0.7829920749215431  1.0000
  C   C157      1.0  0.34504152001272825  0.29258336571582527  0.7536603245106677  1.0000
  C   C158      1.0  0.4236276550372758  0.22301128012037258  0.8032633099122747  1.0000
  C   C159      1.0  0.03193754649001422  0.19529607938264879  0.7611065979971784  1.0000
  C   C160      1.0  0.022908479849081204  0.23936894308919426  0.7694870981145715  1.0000
  C   C161      1.0  0.47800409807219646  0.2348225982976153  0.7751411817377569  1.0000
  C   C162      1.0  0.4560435310755322  0.20332255348523381  0.7869726006345313  1.0000
  C   C163      1.0  0.46793193217380197  0.15811735560960608  0.7890889099412239  1.0000
  C   C164      1.0  0.5005954160113472  0.14710147175783614  0.782881916679353  1.0000
  C   C165      1.0  0.3977856456672239  0.1854649139673462  0.8156921254301576  1.0000
  C   C166      1.0  0.38347947004905686  0.1908738823858455  0.8423885517394059  1.0000
  C   C167      1.0  0.35245170733488546  0.1749666165321074  0.8481273724719685  1.0000
  C   C168      1.0  0.33283667271435474  0.16036921280803212  0.8261380925886168  1.0000
  C   C169      1.0  0.3470231305694595  0.14784049063269153  0.8003716560547818  1.0000
  C   C170      1.0  0.3804524903500503  0.15717578772010715  0.7963847750585904  1.0000
  C   C171      1.0  0.4582177416619782  0.22344323684412268  0.8490658359583195  1.0000
  C   C172      1.0  0.47510587039621255  0.24439584789215932  0.8711673925115959  1.0000
  C   C173      1.0  0.47736955951770327  0.2915629312375932  0.8730104246405473  1.0000
  C   C174      1.0  0.4612688556996687  0.31773852846146294  0.8530378879603701  1.0000
  C   C175      1.0  0.44558336330458825  0.29648885135530395  0.8302118291219197  1.0000
  C   C176      1.0  0.44300383347938077  0.24861631710247892  0.8282671124617158  1.0000
  H   H89       1.0  0.2945629430586398  0.35445969563735696  0.6861396773312777  1.0000
  H   H90       1.0  0.3254282508028591  0.2203179809877166  0.712463260359267  1.0000
  H   H91       1.0  0.30719535330815945  0.18607446389989418  0.6683575949284979  1.0000
  H   H92       1.0  0.27592960334325217  0.3213062024338339  0.6435910562853125  1.0000
  H   H93       1.0  0.3033534613158585  0.22494951805993432  0.7649727286125075  1.0000
  H   H94       1.0  0.2565699191235782  0.17796976946723655  0.77085983928648  1.0000
  H   H95       1.0  0.19694055310844444  0.2746837519136871  0.7251272213556712  1.0000
  H   H96       1.0  0.245362167630843  0.3253765220933504  0.7203289825371941  1.0000
  H   H97       1.0  0.37538765288353565  0.2732178820508034  0.7181639493926097  1.0000
  H   H98       1.0  0.41724268879730136  0.23356089871892044  0.7443794926061432  1.0000
  H   H99       1.0  0.3701399771309893  0.28022453504446465  0.8211280109966971  1.0000
  H   H100      1.0  0.3242436372893948  0.31235761107791643  0.7929952906835072  1.0000
  H   H101      1.0  0.04030695787601827  0.2683023073311948  0.7696565723333255  1.0000
  H   H102      1.0  0.4703256760112762  0.27008093604180955  0.7722219883197166  1.0000
  H   H103      1.0  0.4531992773613221  0.13241579320081737  0.7994925085449947  1.0000
  H   H104      1.0  0.5098595414680798  0.11236959627859242  0.7866866128903837  1.0000
  H   H105      1.0  0.3938524359766665  0.21346918529376546  0.8584716550991752  1.0000
  H   H106      1.0  0.3426761450450828  0.18320888310900468  0.8690743859099822  1.0000
  H   H107      1.0  0.33155845787993543  0.13392427406419366  0.7831361280074841  1.0000
  H   H108      1.0  0.39105881643810836  0.1520213507868938  0.7753742087885438  1.0000
  H   H109      1.0  0.4568289457788824  0.1860427039827608  0.848665453116513  1.0000
  H   H110      1.0  0.4859653634369505  0.22316929017442388  0.8874729307834801  1.0000
  H   H111      1.0  0.4616466266720525  0.35499997669517175  0.8553766321791774  1.0000
  H   H112      1.0  0.43569853348491094  0.3179569245247678  0.8141096599125407  1.0000
  C   C177      1.0  0.4009508200005655  0.9784801843834227  0.7324230864730377  1.0000
  C   C178      1.0  0.3855680387277719  0.020796203997415663  0.7283239288069214  1.0000
  C   C179      1.0  0.35252570121391236  0.027820537618731045  0.7348952916391139  1.0000
  C   C180      1.0  0.33320862360016257  0.9919833859709994  0.7442756896471564  1.0000
  C   C181      1.0  0.34879723636183463  0.9493583273978694  0.7483896763074134  1.0000
  C   C182      1.0  0.381916555890149  0.9428688212154577  0.7428860010533722  1.0000
  H   H113      1.0  0.3989143169412615  0.05020002988307009  0.7209306160137714  1.0000
  H   H114      1.0  0.3413670033982137  0.06123895537394057  0.7324993498714769  1.0000
  H   H115      1.0  0.33539344355898315  0.9207532346305263  0.7566049390615212  1.0000
  H   H116      1.0  0.39339694842667766  0.9087308631263612  0.7458793394421175  1.0000
  C   C183      1.0  0.2841793131638381  0.9408272687637764  0.709586435495915  1.0000
  C   C184      1.0  0.2733277703705005  0.9557649788393433  0.7361515192856289  1.0000
  C   C185      1.0  0.24340062079521294  0.9382809192631031  0.745633601824924  1.0000
  C   C186      1.0  0.22512614989530053  0.9080617491654643  0.728614153406538  1.0000
  C   C187      1.0  0.237442258695085  0.893683923863091  0.7023308205055028  1.0000
  C   C188      1.0  0.2675494799217599  0.9092595789985577  0.6931876864037162  1.0000
  C   C189      1.0  0.2935400327031144  0.996460588161258  0.7513660672742833  1.0000
  C   C190      1.0  0.2710822192385013  0.04004432529596502  0.7429919224400936  1.0000
  C   C191      1.0  0.24264910530596706  0.050182009386289486  0.7590390125283777  1.0000
  C   C192      1.0  0.22151294784610737  0.08522040504163667  0.7525587420887657  1.0000
  C   C193      1.0  0.22838153919728796  0.1118103093399382  0.7296712488460171  1.0000
  C   C194      1.0  0.25499876391138926  0.10140590777076845  0.7125776554569259  1.0000
  C   C195      1.0  0.276483921473265  0.06600802104284004  0.7195409274199873  1.0000
  C   C196      1.0  0.29383708947028875  0.9546537169688355  0.8004585115918933  1.0000
  C   C197      1.0  0.29918001496252355  0.9554495958554301  0.8292521813582244  1.0000
  C   C198      1.0  0.3058841532523038  0.9979847641608703  0.8434159891906029  1.0000
  C   C199      1.0  0.3067772735826655  0.037547195745813555  0.8275870971589647  1.0000
  C   C200      1.0  0.30352338964631037  0.03543135967091926  0.7989925595996699  1.0000
  C   C201      1.0  0.2968102605895064  0.9945737039458125  0.7848287517672913  1.0000
  C   C202      1.0  0.3085076646028339  0.0020834218911056634  0.8766477650605584  1.0000
  C   C203      1.0  0.20977809234219166  0.07069394491676495  0.8832042988986097  1.0000
  C   C204      1.0  0.21143052066995988  0.022537381894059072  0.8819629002462356  1.0000
  C   C205      1.0  0.2422715755301213  2.8193088692507473e-06  0.8813909247579403  1.0000
  C   C206      1.0  0.2720600510502874  0.024842726953752337  0.8837381426876855  1.0000
  C   C207      1.0  0.26864696119366077  0.07315160364911176  0.8864709144650962  1.0000
  C   C208      1.0  0.23860416055325007  0.09588506761204756  0.8858502151389092  1.0000
  C   C209      1.0  0.33771161245821807  0.036120354286065526  0.8885702763499133  1.0000
  C   C210      1.0  0.3641032932246689  0.05272163735754654  0.8723981990252979  1.0000
  C   C211      1.0  0.38422498521106424  0.0874855039381399  0.8829140742989933  1.0000
  C   C212      1.0  0.37813932780507475  0.10646849652256658  0.9093795919851893  1.0000
  C   C213      1.0  0.35501036255185925  0.08685559788393929  0.9268460286555393  1.0000
  C   C214      1.0  0.3357680748437735  0.051120580024542714  0.9168809445927949  1.0000
  C   C215      1.0  0.2990391968717987  0.9284729408192687  0.9080471009402346  1.0000
  C   C216      1.0  0.31248840992187416  0.8971406540873867  0.926333369143808  1.0000
  C   C217      1.0  0.34689738437656986  0.8910420444624725  0.9268926340656967  1.0000
  C   C218      1.0  0.36665634829102534  0.9114217769930018  0.907151006008572  1.0000
  C   C219      1.0  0.35312719628886846  0.9408314501674762  0.8885427367893657  1.0000
  C   C220      1.0  0.31930168591878233  0.9535623750076047  0.8901421497288581  1.0000
  H   H117      1.0  0.305471404650739  0.9565332368218394  0.6996022855835609  1.0000
  H   H118      1.0  0.23244721265866733  0.9488949146828075  0.7658434024113571  1.0000
  H   H119      1.0  0.20188492163204982  0.8943345138287443  0.7363824279086816  1.0000
  H   H120      1.0  0.27784666538202707  0.8980663722123348  0.6726558848016502  1.0000
  H   H121      1.0  0.23654379189108948  0.02927752711663989  0.7766389101459967  1.0000
  H   H122      1.0  0.20015941906557214  0.09388701333707464  0.7658158628508095  1.0000
  H   H123      1.0  0.25847786926259386  0.11970031352711051  0.6929250013646472  1.0000
  H   H124      1.0  0.2961096924610525  0.05599402944926946  0.7044577219508674  1.0000
  H   H125      1.0  0.28618688658945246  0.9216976855658988  0.7909065209373622  1.0000
  H   H126      1.0  0.2982677858854195  0.9223642634878677  0.8398464384580935  1.0000
  H   H127      1.0  0.3106875138439636  0.07056968226371543  0.8376644578916338  1.0000
  H   H128      1.0  0.3048617228769018  0.06782366218765547  0.7878581034275218  1.0000
  H   H129      1.0  0.1892959400580932  0.0017574859282982747  0.8781285460469229  1.0000
  H   H130      1.0  0.24276579112037464  0.9630013973360225  0.8764698171308666  1.0000
  H   H131      1.0  0.2898392282967243  0.09654954399471558  0.8877949317991131  1.0000
  H   H132      1.0  0.23758892063672357  0.13341211250294593  0.8871784693283948  1.0000
  H   H133      1.0  0.36763272310651823  0.04162904361494579  0.8504978931067921  1.0000
  H   H134      1.0  0.4020207767395242  0.10287685349485584  0.8684473313005917  1.0000
  H   H135      1.0  0.34882877989334127  0.10189183133824596  0.9475028174939365  1.0000
  H   H136      1.0  0.31549890006535547  0.03840493044783533  0.9297164982356878  1.0000
  H   H137      1.0  0.2732183891068548  0.9374356745270915  0.9105404903836551  1.0000
  H   H138      1.0  0.296587311558935  0.8831895573618094  0.9425923020055348  1.0000
  H   H139      1.0  0.39349973526824  0.9059554758678298  0.9074687701687361  1.0000
  H   H140      1.0  0.36993669561310444  0.9548754398847485  0.8734256364764951  1.0000
  C   C221      1.0  0.3481483191799868  0.910652128638516  0.07283154550959837  1.0000
  C   C222      1.0  0.3562114830014961  0.9549840907399131  0.08104807932034672  1.0000
  C   C223      1.0  0.3880684003789358  0.9712593887761806  0.07707369704778834  1.0000
  C   C224      1.0  0.41174922596154  0.9464949329780492  0.060440226162614845  1.0000
  C   C225      1.0  0.4023889814999702  0.9021605857779178  0.05151889144462265  1.0000
  C   C226      1.0  0.37211332827921423  0.8844372789470069  0.058836576367653645  1.0000
  H   H141      1.0  0.3391286129687247  0.9752196411746361  0.09424016435094364  1.0000
  H   H142      1.0  0.3953748780307504  0.0019234790306785765  0.08898752278343203  1.0000
  H   H143      1.0  0.4194422267247599  0.879745326915323  0.03968789623339505  1.0000
  H   H144      1.0  0.36730238394524806  0.8490638109650759  0.05266093583625222  1.0000
  C   C227      1.0  0.4712678194524193  0.9573758226351706  0.10711554443524372  1.0000
  C   C228      1.0  0.4678013788044934  0.9369339944080131  0.08058689760256198  1.0000
  C   C229      1.0  0.4780398354428937  0.891192903158441  0.0768904530487604  1.0000
  C   C230      1.0  0.4878927510918861  0.8667801734500374  0.09977561602100124  1.0000
  C   C231      1.0  0.4879803329583365  0.8879364239106432  0.1263970499884509  1.0000
  C   C232      1.0  0.4824447244319906  0.9339856833995739  0.12962383911353  1.0000
  C   C233      1.0  0.44975948894640394  0.9631728489532113  0.056079018985750094  1.0000
  C   C234      1.0  0.4586984314769667  0.017537132405159417  0.05888063966452973  1.0000
  C   C235      1.0  0.43497405145745277  0.051628513847228816  0.052986114493486745  1.0000
  C   C236      1.0  0.44317549607513973  0.0984267096676505  0.05432030028062884  1.0000
  C   C237      1.0  0.47563590740153616  0.11146268075329824  0.059016007196759604  1.0000
  C   C238      1.0  0.4993075629371054  0.0785395714888371  0.0638477171734406  1.0000
  C   C239      1.0  0.4913510088249887  0.03286954149062149  0.06357168603964475  1.0000
  C   C240      1.0  0.49828328898540947  0.9450026799337109  0.019639518706642933  1.0000
  C   C241      1.0  0.5115876211020332  0.9560842961867737  0.994176017338831  1.0000
  C   C242      1.0  0.4928048719744702  0.9765503133207938  0.9736187946039518  1.0000
  C   C243      1.0  0.4587013894419595  0.9745913567488127  0.9768303310493431  1.0000
  C   C244      1.0  0.4449976514266328  0.9640399590422926  0.002537451606613894  1.0000
  C   C245      1.0  0.46475590565359026  0.9526888071135644  0.02513048339427737  1.0000
  C   C246      1.0  0.5095692591081703  0.002735374854165862  0.9473312248474479  1.0000
  C   C247      1.0  0.10358283849291484  0.1082256125049153  0.9521591216542069  1.0000
  C   C248      1.0  0.08193201318447739  0.09355488309769383  0.9724515409222827  1.0000
  C   C249      1.0  0.5484682137314653  0.048949639590831484  0.9816518725728989  1.0000
  C   C250      1.0  0.5441502059744708  0.027430727620951556  0.955315578978503  1.0000
  C   C251      1.0  0.07010093974803763  0.06890704017965478  0.9168406944658408  1.0000
  C   C252      1.0  0.09680334462088076  0.09729257318277397  0.9239903880695317  1.0000
  C   C253      1.0  0.48992731822204  0.04926563709594611  0.939730306136324  1.0000
  C   C254      1.0  0.47235548322207827  0.07710305194805506  0.9597176718106423  1.0000
  C   C255      1.0  0.45415130142600096  0.11493258683015069  0.9513816586756721  1.0000
  C   C256      1.0  0.452095003559639  0.12443467162627637  0.9230985299933381  1.0000
  C   C257      1.0  0.4712826650864874  0.09962149144496082  0.9038526140260693  1.0000
  C   C258      1.0  0.49089107528594206  0.06439842446449084  0.9124343647782328  1.0000
  C   C259      1.0  0.48288176251951387  0.9530364360120998  0.9054880402370469  1.0000
  C   C260      1.0  0.4793846764659659  0.9129240571522326  0.8892968970628218  1.0000
  C   C261      1.0  0.5037787247912895  0.8786571374528743  0.8903942426292549  1.0000
  C   C262      1.0  0.5319827165732504  0.8862597780401862  0.9065832673757456  1.0000
  C   C263      1.0  0.5342962807442317  0.9260872969863503  0.9233675703156103  1.0000
  C   C264      1.0  0.5099498328456198  0.9604776521903022  0.9235412813898333  1.0000
  H   H145      1.0  0.46349985578255315  0.9928792914616386  0.11098824217654962  1.0000
  H   H146      1.0  0.475436861018912  0.8721170113975617  0.05709120375725929  1.0000
  H   H147      1.0  0.491973863325139  0.8295791581972755  0.09810375285299149  1.0000
  H   H148      1.0  0.48115033591685014  0.9514934610056034  0.15018233290504976  1.0000
  H   H149      1.0  0.4099719078809678  0.04264425338246225  0.04723987926385367  1.0000
  H   H150      1.0  0.42407841213484443  0.12419048847196235  0.05106830186551004  1.0000
  H   H151      1.0  0.5251270829484497  0.08793460514002262  0.06741175999384048  1.0000
  H   H152      1.0  0.5117717966729185  0.00904822920957371  0.06680398307683338  1.0000
  H   H153      1.0  0.5159984142673514  0.9364277835596445  0.03609165331143186  1.0000
  H   H154      1.0  0.5383465685647116  0.9530903959576329  0.9921211424364368  1.0000
  H   H155      1.0  0.44248197597788497  0.9869774912591519  0.9606688458633998  1.0000
  H   H156      1.0  0.41876398468690074  0.9703590846918543  0.005861264721929826  1.0000
  H   H157      1.0  0.08537149405768771  0.10574256119429049  0.9940997539403915  1.0000
  H   H158      1.0  0.5294105889997516  0.04658315737748983  0.9976904889502451  1.0000
  H   H159      1.0  0.06508912969690514  0.06002512984479738  0.8947709143285809  1.0000
  H   H160      1.0  0.1118442482279132  0.11224714017686764  0.907165835002713  1.0000
  H   H161      1.0  0.47136280999209546  0.06950324812210203  0.9821306372408793  1.0000
  H   H162      1.0  0.43791695869158154  0.1324164360315605  0.9666661147795627  1.0000
  H   H163      1.0  0.47160503206079235  0.10710785630937233  0.8815455699825535  1.0000
  H   H164      1.0  0.5057089007463529  0.04607338470145961  0.8967791838208176  1.0000
  H   H165      1.0  0.46264086960729667  0.9779761871909907  0.905265605324932  1.0000
  H   H166      1.0  0.45702027183161636  0.9085667383089331  0.8767812260078274  1.0000
  H   H167      1.0  0.5510098082695523  0.8594205469886278  0.9083500361062578  1.0000
  H   H168      1.0  0.5548659321293747  0.9304680125363637  0.9380461560874546  1.0000
  C   C265      1.0  0.18061464540700836  0.07933681040870089  0.9705004689788754  1.0000
  C   C266      1.0  0.1666334660722114  0.03835999251751865  0.9612323476407575  1.0000
  C   C267      1.0  0.1778016345187991  0.9968593969592396  0.9715384985687445  1.0000
  C   C268      1.0  0.20568576537171493  0.9952953473882359  0.9894836999070752  1.0000
  C   C269      1.0  0.21815025077443093  0.037397533287232054  0.9996881663038099  1.0000
  C   C270      1.0  0.20552041334857563  0.0788905980047261  0.9906424798778068  1.0000
  H   H169      1.0  0.14791884957184542  0.0378935206166231  0.9450750993102831  1.0000
  H   H170      1.0  0.16693796592754453  0.9649542822766257  0.9635117758830009  1.0000
  H   H171      1.0  0.23692294817439624  0.03822875404060588  0.016194955210464546  1.0000
  H   H172      1.0  0.2161237524425829  0.11179232054593496  0.9981078192139272  1.0000
  C   C271      1.0  0.28319160827928697  0.9753106665130319  0.9851027913522804  1.0000
  C   C272      1.0  0.26247814925265145  0.9446831925005673  0.9993513362940359  1.0000
  C   C273      1.0  0.2770352898844041  0.9056526474585593  0.010801438198613678  1.0000
  C   C274      1.0  0.3098026647292237  0.8947491578405007  0.005132525581287073  1.0000
  C   C275      1.0  0.3293122605118241  0.9242728561929586  0.9898544247606  1.0000
  C   C276      1.0  0.3161341762577202  0.9651444846882489  0.981315042563125  1.0000
  C   C277      1.0  0.22190676680044213  0.9466020096989768  0.9974108564893008  1.0000
  C   C278      1.0  0.21808639499636914  0.9058502066500652  0.9726527915570531  1.0000
  C   C279      1.0  0.21475431092030642  0.8584757706976113  0.9779573346040582  1.0000
  C   C280      1.0  0.2142253888159584  0.8256401888932642  0.9564425825332181  1.0000
  C   C281      1.0  0.2185363070157298  0.8389348335567565  0.9287865084602744  1.0000
  C   C282      1.0  0.22192458072002338  0.8851200197764677  0.9232849516339676  1.0000
  C   C283      1.0  0.22218323794512568  0.917795101753829  0.94479122999387  1.0000
  C   C284      1.0  0.21503575721970636  0.9562750648121203  0.05193537433721099  1.0000
  C   C285      1.0  0.20050872785974583  0.9459661449906618  0.07718194870501754  1.0000
  C   C286      1.0  0.17628462859922125  0.9109762910831094  0.07902731110447686  1.0000
  C   C287      1.0  0.1660493956987254  0.8899713240257593  0.053458735721037404  1.0000
  C   C288      1.0  0.17553618720371275  0.9082387601411912  0.02826469836104463  1.0000
  C   C289      1.0  0.2033482103091747  0.9360495377981127  0.026952331245884587  1.0000
  C   C290      1.0  0.16504142641711178  0.8926354269669218  0.10930811714037561  1.0000
  C   C291      1.0  0.2701545789211646  0.8710453775534779  0.11989813738477591  1.0000
  C   C292      1.0  0.25389557610804325  0.901362573016563  0.13765734076802388  1.0000
  C   C293      1.0  0.21950812316156026  0.9039984688984156  0.13812106459908993  1.0000
  C   C294      1.0  0.2003933474050944  0.8747597657017504  0.12078999546096966  1.0000
  C   C295      1.0  0.2175534565238605  0.8379421539658204  0.10712295893231423  1.0000
  C   C296      1.0  0.25205567249830124  0.8367762592525225  0.10624995486295687  1.0000
  C   C297      1.0  0.13735255453791265  0.8524740346602142  0.10802879863155518  1.0000
  C   C298      1.0  0.10739751919546424  0.860752312709485  0.09468270390466542  1.0000
  C   C299      1.0  0.08782629370754678  0.8248466706161397  0.08465682096594303  1.0000
  C   C300      1.0  0.09491333665558084  0.7799036520563147  0.09117077440653244  1.0000
  C   C301      1.0  0.12232268921064167  0.7719077963206595  0.10823894666281034  1.0000
  C   C302      1.0  0.14225851938438433  0.8078945042244604  0.11806781582223103  1.0000
  C   C303      1.0  0.1413697914692635  0.9312162991433306  0.15511318529970192  1.0000
  C   C304      1.0  0.12272625953760978  0.9640766270457851  0.17008665621217844  1.0000
  C   C305      1.0  0.10846075683248164  0.0003535766082594094  0.15600292494816123  1.0000
  C   C306      1.0  0.11419433861377493  0.004410656766745458  0.12752956145527555  1.0000
  C   C307      1.0  0.13426623369479132  0.9728498386119656  0.11323928348715169  1.0000
  C   C308      1.0  0.14843950464505246  0.934781464100145  0.12668769827361426  1.0000
  H   H173      1.0  0.27437660059073143  0.005812960536600187  0.9745678502289751  1.0000
  H   H174      1.0  0.26149277501291746  0.88136463276684  0.02181302556216469  1.0000
  H   H175      1.0  0.3209007242173656  0.8632565577379362  0.013080866440857042  1.0000
  H   H176      1.0  0.33155065611081525  0.9897123733279676  0.9704792847015312  1.0000
  H   H177      1.0  0.21312700225290415  0.8461179880234313  0.9995144552295868  1.0000
  H   H178      1.0  0.21052033604781495  0.788680691141495  0.9601116993692457  1.0000
  H   H179      1.0  0.22394485334556807  0.8962052223870239  0.9017532521412522  1.0000
  H   H180      1.0  0.22449682911828864  0.953391615068227  0.9391117252378712  1.0000
  H   H181      1.0  0.23605677427123034  0.9795417774284517  0.05115155607547302  1.0000
  H   H182      1.0  0.20976541508192129  0.9633433293927649  0.09610141495841115  1.0000
  H   H183      1.0  0.14802245808613912  0.8619585914060552  0.052738046605785356  1.0000
  H   H184      1.0  0.1644794194529969  0.8942757791240957  0.008769866001298254  1.0000
  H   H185      1.0  0.26843109282329985  0.9290023665365472  0.14804505116378638  1.0000
  H   H186      1.0  0.20860886388944114  0.9334846530866092  0.14912905063549267  1.0000
  H   H187      1.0  0.20388354366031697  0.8142303555265251  0.09350655282651159  1.0000
  H   H188      1.0  0.2649864201732139  0.8109988338288144  0.09325085859896626  1.0000
  H   H189      1.0  0.10056478724755824  0.8955040865029342  0.08924194595433671  1.0000
  H   H190      1.0  0.06703617746303078  0.831345960397456  0.07086267877322197  1.0000
  H   H191      1.0  0.12861133945235004  0.7368596175159453  0.11410423753111822  1.0000
  H   H192      1.0  0.1637921804501978  0.800154323369196  0.13087625359012323  1.0000
  H   H193      1.0  0.15037884028335635  0.901359494275114  0.16611884106559677  1.0000
  H   H194      1.0  0.11900134340948397  0.959893539189959  0.19265066553988014  1.0000
  H   H195      1.0  0.10257302843331366  0.03160168239723138  0.11550811959072295  1.0000
  H   H196      1.0  0.13849971885105022  0.9795500656575484  0.0914211725647417  1.0000
  C   C309      1.0  0.155482310039876  0.060407493565122684  0.8340737228817802  1.0000
  C   C310      1.0  0.1287593763213526  0.03752093614755303  0.844284544561718  1.0000
  C   C311      1.0  0.12356643850145112  0.9921698442274195  0.8360078474033119  1.0000
  C   C312      1.0  0.14224462935724907  0.9711386661904468  0.813893580283629  1.0000
  C   C313      1.0  0.16856884453470075  0.996473506024266  0.8031573885255533  1.0000
  C   C314      1.0  0.1750521689416344  0.040086888717925984  0.8135228554301043  1.0000
  H   H197      1.0  0.11299490380061149  0.05201600692794817  0.8612404401480712  1.0000
  H   H198      1.0  0.10480519076077248  0.9733092285482656  0.8471253561535845  1.0000
  H   H199      1.0  0.18567940337252994  0.9805373041467932  0.7880974857615121  1.0000
  H   H200      1.0  0.197772810156443  0.0577521392960923  0.807671758027617  1.0000
  C   C315      1.0  0.06953353794054218  0.9336230094666368  0.8045513139748063  1.0000
  C   C316      1.0  0.09659288986013892  0.9032650414990515  0.8063879908205543  1.0000
  C   C317      1.0  0.08959873800465537  0.8560624655391684  0.8100465155179097  1.0000
  C   C318      1.0  0.057999866418662956  0.8409152630499195  0.8163594301665019  1.0000
  C   C319      1.0  0.5246757208938871  0.8448731741211853  0.8267820946198826  1.0000
  C   C320      1.0  0.5276691407026861  0.8895399492625706  0.817694039639191  1.0000
  C   C321      1.0  0.13427942300277498  0.9199293023932997  0.8037060613087699  1.0000
  C   C322      1.0  0.15876924067084677  0.8932430832861944  0.8241721916510685  1.0000
  C   C323      1.0  0.191267234261206  0.8840795425866005  0.8160247185844625  1.0000
  C   C324      1.0  0.21161270064157472  0.8561033780355549  0.8322963620125959  1.0000
  C   C325      1.0  0.2015003479616392  0.8409755915180863  0.8583720889956572  1.0000
  C   C326      1.0  0.17017748113772851  0.8533413965179779  0.8678372241130767  1.0000
  C   C327      1.0  0.1490666247629129  0.8776425051271687  0.8506228803431234  1.0000
  C   C328      1.0  0.13048185429431164  0.9448894459606274  0.7505695384461388  1.0000
  C   C329      1.0  0.12008579594337208  0.9315441407335836  0.7236803352130576  1.0000
  C   C330      1.0  0.11669453484191683  0.8847570663097071  0.715287124529258  1.0000
  C   C331      1.0  0.12865885454038264  0.8521229633813615  0.7339335254476841  1.0000
  C   C332      1.0  0.14191620024117366  0.8659676017685654  0.7597656332412862  1.0000
  C   C333      1.0  0.13889951260231181  0.911545914693303  0.7699552706438797  1.0000
  C   C334      1.0  0.0921075352624718  0.8698112435577805  0.6902261244309873  1.0000
  C   C335      1.0  0.4781229580981963  0.9110694744774166  0.6974838578491339  1.0000
  C   C336      1.0  0.4935603363847929  0.9143773256321925  0.6715373549578727  1.0000
  C   C337      1.0  0.5239578101321358  0.8948272542327659  0.6667836031218187  1.0000
  C   C338      1.0  0.5417372291447883  0.8738100742609698  0.688260223493439  1.0000
  C   C339      1.0  0.5247233746854204  0.8670716300487052  0.7134271449784312  1.0000
  C   C340      1.0  0.4936421022401785  0.8860051130803797  0.7180961597051081  1.0000
  C   C341      1.0  0.09536669111170036  0.8185202227923534  0.6754204329950773  1.0000
  C   C342      1.0  0.1264922950364754  0.7980227994386924  0.6718890139617876  1.0000
  C   C343      1.0  0.1304380209847425  0.7549427089817627  0.6590661708853013  1.0000
  C   C344      1.0  0.1031161664519066  0.7306623727118555  0.6491349816663078  1.0000
  C   C345      1.0  0.07201870976377787  0.7508650037864729  0.6518147927503578  1.0000
  C   C346      1.0  0.0684101240515769  0.7942538540819409  0.6649808211198214  1.0000
  C   C347      1.0  0.07135672678736327  0.9084090099537453  0.6445485856212735  1.0000
  C   C348      1.0  0.07585947973720066  0.9376990499904488  0.6225656610211251  1.0000
  C   C349      1.0  0.10683733160027646  0.954675171244465  0.6164349311576935  1.0000
  C   C350      1.0  0.13340658048908224  0.942274137865307  0.6325032055233218  1.0000
  C   C351      1.0  0.1285055059043143  0.9143809702208429  0.6552402903969262  1.0000
  C   C352      1.0  0.09704540679771011  0.8987401794084159  0.6625848793521845  1.0000
  H   H201      1.0  0.07436062944155995  0.9698282970552518  0.800685183359477  1.0000
  H   H202      1.0  0.1092807763804222  0.8304735873473836  0.8101587921878344  1.0000
  H   H203      1.0  0.5514115846778379  0.7805402861663048  0.8314553462020284  1.0000
  H   H204      1.0  0.5071741807349976  0.9138883432070372  0.8191515179204768  1.0000
  H   H205      1.0  0.20067340718673116  0.896514320316231  0.7962958010937443  1.0000
  H   H206      1.0  0.2369861493554997  0.8487481157585279  0.8255004458405542  1.0000
  H   H207      1.0  0.16180130183177657  0.8432511806420968  0.8884876576682706  1.0000
  H   H208      1.0  0.12493771478449517  0.8875673783286593  0.8592618286441166  1.0000
  H   H209      1.0  0.12766185929183305  0.9806787985558245  0.7571451381338001  1.0000
  H   H210      1.0  0.109631139396147  0.957918879276248  0.7104549908670302  1.0000
  H   H211      1.0  0.12630695211133505  0.8152439550198568  0.7292433264436627  1.0000
  H   H212      1.0  0.14852306409479807  0.8387257007958744  0.7739252042181959  1.0000
  H   H213      1.0  0.4812369143168481  0.93203331896693  0.6546619596254276  1.0000
  H   H214      1.0  0.057102160970522245  0.9536970438527038  0.6984435056128294  1.0000
  H   H215      1.0  0.5365231152322345  0.8477179870095553  0.7302453427620467  1.0000
  H   H216      1.0  0.4803280804327771  0.8787811442060449  0.7379140511606722  1.0000
  H   H217      1.0  0.1484444748125688  0.8154621276447611  0.680028013317456  1.0000
  H   H218      1.0  0.15523171527453547  0.7400992816485803  0.6581954970864519  1.0000
  H   H219      1.0  0.050321187030558635  0.7318946046836348  0.6437541752208634  1.0000
  H   H220      1.0  0.04389015690668586  0.8098570176839458  0.6666734448796284  1.0000
  H   H221      1.0  0.04689044936961396  0.8955525616096202  0.6496391674671014  1.0000
  H   H222      1.0  0.054967891062254665  0.944702154678204  0.6088996837063368  1.0000
  H   H223      1.0  0.15814044573002983  0.9546595169457281  0.6278235986579727  1.0000
  H   H224      1.0  0.14915419824244763  0.907942755734211  0.6690015969597637  1.0000
  C   C353      1.0  0.03710448977360365  0.41450724212182505  0.5226669643487536  1.0000
  C   C354      1.0  0.04312691555699812  0.44277478367147494  0.5004806706861002  1.0000
  C   C355      1.0  0.07455927998351498  0.4607369040585509  0.49757418783446644  1.0000
  C   C356      1.0  0.09972071253956419  0.4524197407146749  0.5175297770927683  1.0000
  C   C357      1.0  0.09022184110101156  0.4322374878351802  0.5422009864879045  1.0000
  C   C358      1.0  0.05979531351756387  0.4104781307222383  0.54408426874381  1.0000
  H   H225      1.0  0.02394231792277375  0.4467243463615461  0.48489539784392116  1.0000
  H   H226      1.0  0.07919018957985258  0.4794903652505229  0.4785401146406404  1.0000
  H   H227      1.0  0.1081453595557813  0.4277262857968119  0.5587776835097953  1.0000
  H   H228      1.0  0.055952710581530216  0.38932235535766435  0.5624446819180884  1.0000
  C   C359      1.0  0.19514365048705107  0.4287557829665345  0.5313292153548254  1.0000
  C   C360      1.0  0.1621723108616071  0.4200906776760195  0.5229063466827439  1.0000
  C   C361      1.0  0.1512662192065091  0.37371743422529224  0.5236753359503408  1.0000
  C   C362      1.0  0.17054791039176573  0.34051033990626833  0.5361189804623647  1.0000
  C   C363      1.0  0.2015864125595176  0.3520899462333633  0.5464865657946502  1.0000
  C   C364      1.0  0.21475035960103697  0.39555020892151976  0.5426839880113539  1.0000
  C   C365      1.0  0.1382297303222084  0.4604696497990719  0.5118523907645041  1.0000
  C   C366      1.0  0.14198738939768488  0.5102444240512459  0.5257365661359382  1.0000
  C   C367      1.0  0.13445171234659603  0.5487109665524116  0.5096979497585918  1.0000
  C   C368      1.0  0.14563310464795773  0.5920734450453382  0.5180191338994209  1.0000
  C   C369      1.0  0.16190293697441918  0.5973863735623794  0.5438936102477115  1.0000
  C   C370      1.0  0.1631666183815722  0.5612141521016053  0.5620591280704227  1.0000
  C   C371      1.0  0.1532265723297502  0.5180668614357542  0.5530706391932492  1.0000
  C   C372      1.0  0.13324315738916148  0.4297097810474896  0.46045933392730637  1.0000
  C   C373      1.0  0.1396599201511224  0.4328977447723302  0.4318605595125426  1.0000
  C   C374      1.0  0.16496070287423087  0.46211358712291584  0.42207977866269336  1.0000
  C   C375      1.0  0.18535619394499467  0.4818967163866075  0.44284037046007746  1.0000
  C   C376      1.0  0.17706452849125048  0.48129126496181407  0.4707866691326378  1.0000
  C   C377      1.0  0.14897310570330866  0.45797312128380313  0.4799552243672375  1.0000
  C   C378      1.0  0.16582150966781195  0.4847493450405443  0.3912206418552961  1.0000
  C   C379      1.0  0.27432081659475793  0.48647557060087865  0.3848166348141234  1.0000
  C   C380      1.0  0.2569945516023847  0.5260465270102789  0.39194302571273565  1.0000
  C   C381      1.0  0.2226736655171201  0.5283365880396179  0.3900512697458924  1.0000
  C   C382      1.0  0.2044593783917321  0.4897881676807306  0.38160086151326333  1.0000
  C   C383      1.0  0.22282155344397644  0.45150167618349435  0.37069519553643343  1.0000
  C   C384      1.0  0.25692607512846694  0.449635605876008  0.3725742409368701  1.0000
  C   C385      1.0  0.1451898725886378  0.5336516970648378  0.3959595646972091  1.0000
  C   C386      1.0  0.14738743949790453  0.5676197160111686  0.3755866451752253  1.0000
  C   C387      1.0  0.12417729685979906  0.6022720960269076  0.3735254149896278  1.0000
  C   C388      1.0  0.10056532920506994  0.6085694287271661  0.394658850068271  1.0000
  C   C389      1.0  0.10136612991665993  0.580716220649411  0.41794037086962316  1.0000
  C   C390      1.0  0.12216472968557067  0.5431171397249525  0.418133147793456  1.0000
  C   C391      1.0  0.1299603199570992  0.47118920880040643  0.3449944302623657  1.0000
  C   C392      1.0  0.11187509221769845  0.44426159017504185  0.3259201069415855  1.0000
  C   C393      1.0  0.11113795932782675  0.39705280035991464  0.32806607423656  1.0000
  C   C394      1.0  0.12965902123029713  0.3764994713629439  0.34861694168823576  1.0000
  C   C395      1.0  0.14861727642164607  0.40441885406219197  0.36732477701096017  1.0000
  C   C396      1.0  0.14764048468072846  0.45303415005207487  0.36715318436447153  1.0000
  H   H229      1.0  0.20481292738239973  0.4636558324288061  0.529570920335251  1.0000
  H   H230      1.0  0.12698533484875899  0.3620738673936114  0.5167586693974369  1.0000
  H   H231      1.0  0.1604703240054715  0.3057704492873354  0.5382861320346835  1.0000
  H   H232      1.0  0.23936776219618117  0.4031111473826682  0.5508695927771795  1.0000
  H   H233      1.0  0.12118684185296312  0.5447507231248592  0.4896936366623982  1.0000
  H   H234      1.0  0.14260784648065625  0.6206218777894065  0.5041074189674392  1.0000
  H   H235      1.0  0.17427324820152768  0.5654092118959829  0.5828981016939805  1.0000
  H   H236      1.0  0.1576809818795358  0.49001665073565914  0.5671391177775784  1.0000
  H   H237      1.0  0.11389663012126858  0.407043457635617  0.46739294790208574  1.0000
  H   H238      1.0  0.12116177931205123  0.41845917202919514  0.41769675168016407  1.0000
  H   H239      1.0  0.20715426320674585  0.5026336092123544  0.43798917094823975  1.0000
  H   H240      1.0  0.19305117911059483  0.5022323559507131  0.4848318450118883  1.0000
  H   H241      1.0  0.269961397196936  0.5554707818834175  0.40143781881843726  1.0000
  H   H242      1.0  0.21045668347624777  0.5577481320764528  0.3997896820410531  1.0000
  H   H243      1.0  0.21185634943078074  0.42090943391389624  0.36064749279204644  1.0000
  H   H244      1.0  0.27111522645137615  0.4198836108080904  0.3651046647452807  1.0000
  H   H245      1.0  0.1647524194469811  0.5619015088180934  0.3582663800185505  1.0000
  H   H246      1.0  0.12504646742887018  0.6235073107742201  0.35515229124894293  1.0000
  H   H247      1.0  0.08329010831742613  0.5851317762868345  0.4352394517489536  1.0000
  H   H248      1.0  0.1183104363592986  0.520976911161909  0.436357981592731  1.0000
  H   H249      1.0  0.12844399119898747  0.5076426636874668  0.3404228632114724  1.0000
  H   H250      1.0  0.10078483640372146  0.46043286784443366  0.3079092343434876  1.0000
  H   H251      1.0  0.12907524547144353  0.3387493789950486  0.3500256961316297  1.0000
  H   H252      1.0  0.16429903726211195  0.38845036470142136  0.38324476143517866  1.0000
  C   C397      1.0  0.10103350069418447  0.4289006235294858  0.1634485629063516  1.0000
  C   C398      1.0  0.11511216116513322  0.46343953636343677  0.17960877703565412  1.0000
  C   C399      1.0  0.096135894620127  0.5009114985112946  0.18942006324487906  1.0000
  C   C400      1.0  0.06186518322494953  0.5036676784403182  0.18410302147424087  1.0000
  C   C401      1.0  0.04879232721372151  0.4714641887666957  0.1649619676798262  1.0000
  C   C402      1.0  0.06828974372280507  0.4347697864352288  0.1548899030164933  1.0000
  H   H253      1.0  0.14085176537206  0.4596018224747955  0.18603502756803827  1.0000
  H   H254      1.0  0.10799024998462921  0.5269143888032499  0.20305828915634633  1.0000
  H   H255      1.0  0.022806744696770354  0.47330496619057705  0.1583334072988043  1.0000
  H   H256      1.0  0.05646744854798162  0.4082672036104823  0.1420829481480152  1.0000
  C   C403      1.0  0.4675233975483355  0.5064048593110853  0.18370094389024663  1.0000
  C   C404      1.0  0.4907125809858056  0.5418604457143882  0.17944099755908752  1.0000
  C   C405      1.0  0.4788078476060991  0.5831290003728932  0.1687948389797249  1.0000
  C   C406      1.0  0.44582357141922374  0.5885075419222591  0.16249421121199228  1.0000
  C   C407      1.0  0.42324611073871915  0.5544153354905916  0.1684817353605766  1.0000
  C   C408      1.0  0.43387174731517947  0.5133516683508093  0.1793367709145537  1.0000
  C   C409      1.0  0.039139243238587196  0.5419432926859877  0.1991474597158207  1.0000
  C   C410      1.0  0.05647083449073382  0.5914451127001242  0.19473519843055626  1.0000
  C   C411      1.0  0.05385329054297167  0.6292233650486092  0.2140798331302494  1.0000
  C   C412      1.0  0.05700435016066153  0.6740947187939973  0.2051214259269047  1.0000
  C   C413      1.0  0.06261317197569405  0.682100807202405  0.1774244661986865  1.0000
  C   C414      1.0  0.07238730371543492  0.646326272545452  0.1598065619453248  1.0000
  C   C415      1.0  0.06940202801585171  0.6014757506420145  0.16832730197873685  1.0000
  C   C416      1.0  0.012575528591734608  0.5541641296058246  0.24946181315064822  1.0000
  C   C417      1.0  0.4908878861484012  0.5341858586468727  0.26609994457683744  1.0000
  C   C418      1.0  0.5031774386927758  0.4936110004616358  0.2774970857880544  1.0000
  C   C419      1.0  0.03834831336116555  0.47464357845723304  0.2706630379167931  1.0000
  C   C420      1.0  0.05084198715645872  0.4918966970800212  0.24565499851188297  1.0000
  C   C421      1.0  0.03665387684683622  0.5306537068130606  0.23321559085532798  1.0000
  C   C422      1.0  0.489696503841034  0.4761220905914146  0.30696229714619877  1.0000
  C   C423      1.0  0.3834047079997024  0.4468783546905151  0.31332181720494845  1.0000
  C   C424      1.0  0.39744438631205925  0.45322175646335916  0.2871719452511822  1.0000
  C   C425      1.0  0.4303046734193427  0.465695659197646  0.2854348345089522  1.0000
  C   C426      1.0  0.4498880303920702  0.4742174825096397  0.30956372640407503  1.0000
  C   C427      1.0  0.43468969910127947  0.46901585739472695  0.3358640067269856  1.0000
  C   C428      1.0  0.40158288211508997  0.4561079638151454  0.33755027520358943  1.0000
  C   C429      1.0  0.5080608364851253  0.513028357851885  0.3271403213166154  1.0000
  C   C430      1.0  0.4907497198098458  0.5515474441251887  0.3371604845004549  1.0000
  C   C431      1.0  0.506985977729737  0.5862373388164924  0.3526207701063027  1.0000
  C   C432      1.0  0.027628816700906073  0.5729766330479686  0.3714535926653583  1.0000
  C   C433      1.0  0.04758056225210021  0.5364640878286026  0.3619821022647354  1.0000
  C   C434      1.0  0.0362323125242258  0.503905596135083  0.34254976465683706  1.0000
  C   C435      1.0  0.5051279111293897  0.4097413696796821  0.3399864670981804  1.0000
  C   C436      1.0  0.5069981466354537  0.36374768219586373  0.34602822299676605  1.0000
  C   C437      1.0  0.5070423753848696  0.3294883888427681  0.3250028277325786  1.0000
  C   C438      1.0  0.5012465034949305  0.3414420706925241  0.2976306229760481  1.0000
  C   C439      1.0  0.4950135465722405  0.38734148031407006  0.2918007098509051  1.0000
  C   C440      1.0  0.49780797445619857  0.42280356181051054  0.31292778964634504  1.0000
  H   H257      1.0  0.4755599516526858  0.4727788557544228  0.19150438429278174  1.0000
  H   H258      1.0  0.49447529074686314  0.6127622543690588  0.16519478288783976  1.0000
  H   H259      1.0  0.4376044449328843  0.6196818052291931  0.15218318790021598  1.0000
  H   H260      1.0  0.415748281546486  0.48661898196742603  0.18304020627987888  1.0000
  H   H261      1.0  0.04707246833700381  0.6263545000762567  0.23617927125579125  1.0000
  H   H262      1.0  0.055410876008858696  0.7020181486213812  0.22056645885306467  1.0000
  H   H263      1.0  0.07915736083762491  0.6525125015909522  0.13822952809909259  1.0000
  H   H264      1.0  0.07421080265850179  0.5751867228899478  0.1522719500222885  1.0000
  H   H265      1.0  0.489229228822506  0.5792212774385753  0.23226441680257026  1.0000
  H   H266      1.0  0.47163076462275433  0.5541210462059638  0.27701408426460505  1.0000
  H   H267      1.0  0.049478703725463626  0.4428485410565357  0.2781093114033038  1.0000
  H   H268      1.0  0.0696828572919192  0.4705520665331823  0.23539757142178772  1.0000
  H   H269      1.0  0.38444478379426933  0.44370952110919254  0.2675129358757002  1.0000
  H   H270      1.0  0.44109610350605416  0.46483816259186655  0.2643035178580434  1.0000
  H   H271      1.0  0.448527726312743  0.47107075733666837  0.3553980288661364  1.0000
  H   H272      1.0  0.3915420742404231  0.4481199054327839  0.3576922861025208  1.0000
  H   H273      1.0  0.46497874067327416  0.5561455991321581  0.3310615310530397  1.0000
  H   H274      1.0  0.4933142626587395  0.6146105682841475  0.36226173472567974  1.0000
  H   H275      1.0  0.0729355070219703  0.5322106955232446  0.3691042563078788  1.0000
  H   H276      1.0  0.05233965109788157  0.4769062241508885  0.333836671385139  1.0000
  H   H277      1.0  0.5071759135638176  0.434231410678424  0.3578681156044783  1.0000
  H   H278      1.0  0.5122273486767119  0.35437018275443866  0.36757263305588805  1.0000
  H   H279      1.0  0.5009172716765008  0.3152403096397673  0.2805327927314882  1.0000
  H   H280      1.0  0.48634550929356457  0.3950475887646785  0.27071176175468487  1.0000
  C   C441      1.0  0.32913490847373933  0.34003756690862164  0.31714346083785466  1.0000
  C   C442      1.0  0.300035489249446  0.33495100310874415  0.3315720721370366  1.0000
  C   C443      1.0  0.2750169597264973  0.3069982475406155  0.3212044868047511  1.0000
  C   C444      1.0  0.2776087815481591  0.285950341271116  0.2942432570286994  1.0000
  C   C445      1.0  0.3089122592277521  0.28680143746234515  0.281191623756895  1.0000
  C   C446      1.0  0.33364088280387094  0.31527666524158277  0.2921502504270856  1.0000
  H   H281      1.0  0.29579826395699627  0.3521147516554847  0.35177763586800076  1.0000
  H   H282      1.0  0.2512727627785293  0.3060147216287481  0.331589019558912  1.0000
  H   H283      1.0  0.3130258275451707  0.26898609401271506  0.2610644418521046  1.0000
  H   H284      1.0  0.35563787977079775  0.3202378491593651  0.27980829044631417  1.0000
  C   C447      1.0  0.2094357051417372  0.337806223569304  0.2876401177804906  1.0000
  C   C448      1.0  0.2110267438615199  0.2898560493283484  0.2842612255440796  1.0000
  C   C449      1.0  0.1814677966193917  0.2660116472060422  0.2802722261201537  1.0000
  C   C450      1.0  0.15138309551587437  0.2888262952144996  0.2790159984736385  1.0000
  C   C451      1.0  0.15044433451662614  0.3364077675837494  0.2813441505537737  1.0000
  C   C452      1.0  0.17945836733976878  0.3608559381362695  0.2854263607980144  1.0000
  C   C453      1.0  0.245869312101314  0.26368604834418163  0.2789249060810582  1.0000
  C   C454      1.0  0.24746400982072098  0.21331725489941963  0.29197442092512815  1.0000
  C   C455      1.0  0.2698572072539757  0.1796135648086199  0.28210042925496415  1.0000
  C   C456      1.0  0.2754742371685013  0.14003247933899235  0.2971899900072873  1.0000
  C   C457      1.0  0.260597224523522  0.13536195905240528  0.32355594158996503  1.0000
  C   C458      1.0  0.2371130261502367  0.16728597822746022  0.3324363906526828  1.0000
  C   C459      1.0  0.2309527335905059  0.2056798836369718  0.317353185183563  1.0000
  C   C460      1.0  0.25710898448652614  0.3128341071555103  0.23544629525967953  1.0000
  C   C461      1.0  0.26140212171841914  0.3205863249563324  0.20775336054415675  1.0000
  C   C462      1.0  0.2609199302789389  0.2847317275051805  0.18815578557297305  1.0000
  C   C463      1.0  0.24883913202118177  0.24245363156710098  0.19713029282709937  1.0000
  C   C464      1.0  0.2411833669964293  0.23466545801306865  0.22525030257388262  1.0000
  C   C465      1.0  0.248886769828718  0.2692560765574445  0.2454897611485977  1.0000
  C   C466      1.0  0.2693962977409671  0.29160497793728574  0.15530680959462853  1.0000
  C   C467      1.0  0.17044630638033867  0.3492523508527939  0.13494066904139476  1.0000
  C   C468      1.0  0.19690353343106967  0.3779081553629685  0.1411317740952575  1.0000
  C   C469      1.0  0.2281121814838191  0.360302497712661  0.14676149579949713  1.0000
  C   C470      1.0  0.23432789274757562  0.31261843001783113  0.14513348408559001  1.0000
  C   C471      1.0  0.20791882136343864  0.28340453638050117  0.1384653091059343  1.0000
  C   C472      1.0  0.17632758315368113  0.30186514329173514  0.13347980127573394  1.0000
  C   C473      1.0  0.28363581425705703  0.24460330816044779  0.13929022486572015  1.0000
  C   C474      1.0  0.30575563905152725  0.21476914602919228  0.15220288927814615  1.0000
  C   C475      1.0  0.32207199757289423  0.17917957320909347  0.13754273382759138  1.0000
  C   C476      1.0  0.3188709574893292  0.17505451435270153  0.10862725446653078  1.0000
  C   C477      1.0  0.29505163868686085  0.2019861544748099  0.09594147366446192  1.0000
  C   C478      1.0  0.2778800304838502  0.23627290471081255  0.11080245606424038  1.0000
  C   C479      1.0  0.30511570427764295  0.3467505773900366  0.12451016640539682  1.0000
  C   C480      1.0  0.33351286086170856  0.371887378600564  0.12003202201759168  1.0000
  C   C481      1.0  0.3579939227576169  0.3736665218022061  0.14042231264699792  1.0000
  C   C482      1.0  0.35282170965447596  0.35513538337302447  0.1661279503048548  1.0000
  C   C483      1.0  0.3245393276349061  0.3320131677983328  0.1709081824875892  1.0000
  C   C484      1.0  0.3002876478044372  0.32543723780795053  0.15030965041188882  1.0000
  H   H285      1.0  0.2323827267608297  0.3577950239114625  0.2899386118723439  1.0000
  H   H286      1.0  0.18216036163271646  0.22871994294885034  0.27577268561223084  1.0000
  H   H287      1.0  0.12874232474431793  0.26879537189351443  0.275247315534093  1.0000
  H   H288      1.0  0.17873037898278224  0.39862888896075144  0.2863584690011623  1.0000
  H   H289      1.0  0.2834047945963801  0.18335494871337626  0.2621914454068197  1.0000
  H   H290      1.0  0.293859327501478  0.11547662540308248  0.28924800443092064  1.0000
  H   H291      1.0  0.22436918801930872  0.16387383616141357  0.3524618880262207  1.0000
  H   H292      1.0  0.21467522852144563  0.23279897777383537  0.3262336342462807  1.0000
  H   H293      1.0  0.2606004606912116  0.341710995965945  0.25002955178347464  1.0000
  H   H294      1.0  0.26638164656755997  0.3553096801801528  0.20086698750785506  1.0000
  H   H295      1.0  0.2447353406413347  0.213046302523507  0.18252436912654593  1.0000
  H   H296      1.0  0.23388657086082443  0.20059735695812833  0.2323385617732752  1.0000
  H   H297      1.0  0.19293064377674368  0.41532083619788573  0.14315423705331493  1.0000
  H   H298      1.0  0.24748039988680265  0.3840717279040354  0.1537923456072867  1.0000
  H   H299      1.0  0.21105732155953466  0.24574473644258749  0.1382180885893267  1.0000
  H   H300      1.0  0.1558563518853222  0.2781624644588754  0.12880104178147858  1.0000
  H   H301      1.0  0.31180441129102304  0.22136008882699137  0.1740322278675486  1.0000
  H   H302      1.0  0.3386601923525319  0.15553750835392488  0.1481541501921094  1.0000
  H   H303      1.0  0.28954793776302734  0.19901235754321478  0.07361112691586749  1.0000
  H   H304      1.0  0.2621573791172075  0.25956943632353235  0.0991735588588771  1.0000
  H   H305      1.0  0.2866768583922198  0.34276397188132596  0.10805888030538405  1.0000
  H   H306      1.0  0.3386510639994557  0.3853869977211777  0.09935426074462374  1.0000
  H   H307      1.0  0.3719133638778746  0.3563309048324418  0.1821089454478248  1.0000
  H   H308      1.0  0.3228760349458706  0.3139693395320269  0.19036424648611316  1.0000
  C   C485      1.0  0.3312245625103761  0.40141834311166175  0.412868854873405  1.0000
  C   C486      1.0  0.31008612139349573  0.3661913661182507  0.4051789621974352  1.0000
  C   C487      1.0  0.3207079658231645  0.3212487684519228  0.40144841095710937  1.0000
  C   C488      1.0  0.353076699746009  0.30919555591228887  0.4083650775100134  1.0000
  C   C489      1.0  0.3747435903682526  0.3453049412912824  0.41442801768594323  1.0000
  C   C490      1.0  0.3642285158082675  0.39090091305600067  0.4162180891215341  1.0000
  H   H309      1.0  0.28352332019653936  0.3736041576918033  0.4033465222071559  1.0000
  H   H310      1.0  0.3026286538913283  0.2953252840388951  0.3941059404295856  1.0000
  H   H311      1.0  0.4005046165372732  0.3389962353170882  0.41993804822318775  1.0000
  H   H312      1.0  0.381680830306052  0.41857209345980867  0.42056722126031254  1.0000
  C   C491      1.0  0.39327867486141665  0.27004205474507287  0.3576965229579897  1.0000
  C   C492      1.0  0.39767076362502035  0.2606738600831545  0.38614488900360916  1.0000
  C   C493      1.0  0.4299349625835003  0.25501709250944427  0.39560790569329435  1.0000
  C   C494      1.0  0.45631382109030005  0.2529222736070453  0.3773131637787832  1.0000
  C   C495      1.0  0.4513343299382274  0.25911799339256814  0.34862117854370467  1.0000
  C   C496      1.0  0.4198519302546631  0.2714783742797636  0.3393000965122261  1.0000
  C   C497      1.0  0.3665766365096978  0.2573169911847031  0.4076681147853869  1.0000
  C   C498      1.0  0.341049461904984  0.2171786434467497  0.39717766064450466  1.0000
  C   C499      1.0  0.35051139896138006  0.18279216040534205  0.3780482582026294  1.0000
  C   C500      1.0  0.3292466382248795  0.14740815296104826  0.3698329954485216  1.0000
  C   C501      1.0  0.2979637283464508  0.14575202504709134  0.38071535872027285  1.0000
  C   C502      1.0  0.28744427363016084  0.17973497548330233  0.400052367080122  1.0000
  C   C503      1.0  0.30919916101354633  0.2135578414837169  0.40908534293971854  1.0000
  C   C504      1.0  0.36260618848178133  0.26742458825169774  0.463687817794573  1.0000
  C   C505      1.0  0.3693800065229496  0.2519427724231746  0.49017663818584756  1.0000
  C   C506      1.0  0.38963859415187924  0.21337337786420804  0.4946846524047081  1.0000
  C   C507      1.0  0.40019787252235006  0.18812470383267488  0.47055364208185074  1.0000
  C   C508      1.0  0.3910620329784824  0.20057265196768684  0.4442597170421435  1.0000
  C   C509      1.0  0.3743931607003378  0.24213900361047463  0.4399275323252404  1.0000
  C   C510      1.0  0.4013117902393814  0.2009087045219558  0.5264504762824401  1.0000
  C   C511      1.0  0.47978481316558597  0.3061250967175331  0.5315622424056123  1.0000
  C   C512      1.0  0.44772722848027985  0.317291905416523  0.5402117828452775  1.0000
  C   C513      1.0  0.4238255285369379  0.28387274875036433  0.5398601238413627  1.0000
  C   C514      1.0  0.4304806441581962  0.23849025097414628  0.530424646712225  1.0000
  C   C515      1.0  0.4620262148272683  0.22805863716283514  0.5202646672979134  1.0000
  C   C516      1.0  0.4868304106321961  0.26110754169667333  0.5214615789678647  1.0000
  C   C517      1.0  0.4113373485226767  0.14819976918056604  0.5312847283724024  1.0000
  C   C518      1.0  0.3929842485684989  0.11230829719191428  0.5178729623857454  1.0000
  C   C519      1.0  0.3989012238709718  0.06653796638756285  0.5239931001105048  1.0000
  C   C520      1.0  0.4212706472395494  0.05654954518324615  0.5448850344274234  1.0000
  C   C521      1.0  0.4409336839344458  0.09060244375103678  0.5569325329531094  1.0000
  C   C522      1.0  0.43477143927902323  0.1362062422490498  0.5511216856775764  1.0000
  C   C523      1.0  0.37887760394142034  0.21193250640055525  0.5783625479145724  1.0000
  C   C524      1.0  0.3535692307107685  0.21069068048061831  0.5984897298193628  1.0000
  C   C525      1.0  0.3211699599271836  0.2019096056346179  0.5900944007078288  1.0000
  C   C526      1.0  0.31415825789515306  0.19556839929037986  0.561872706429793  1.0000
  C   C527      1.0  0.33852157737479854  0.20062016183203288  0.5420082095640716  1.0000
  C   C528      1.0  0.37192688203950436  0.20660714943614383  0.5496303125525398  1.0000
  H   H313      1.0  0.36816938114692443  0.2753000588378134  0.34989435361209525  1.0000
  H   H314      1.0  0.435677588007894  0.24843421614135405  0.41729636883835736  1.0000
  H   H315      1.0  0.4798539703020194  0.24298262216752303  0.3862084418356419  1.0000
  H   H316      1.0  0.41531629766222117  0.2770018235626479  0.3168617099491759  1.0000
  H   H317      1.0  0.375807775255564  0.18073090243990442  0.3697334293450036  1.0000
  H   H318      1.0  0.33697307211378197  0.12050594537114001  0.35468835557510336  1.0000
  H   H319      1.0  0.26326144910063687  0.1794069756126445  0.41002592485380407  1.0000
  H   H320      1.0  0.30196554514152973  0.23676047151615462  0.4264712793561604  1.0000
  H   H321      1.0  0.34857614300607803  0.29966235262438995  0.4622748264957103  1.0000
  H   H322      1.0  0.3612616057910318  0.27371562192174154  0.5076557854226043  1.0000
  H   H323      1.0  0.414302400618805  0.1562640788930698  0.4717675011736774  1.0000
  H   H324      1.0  0.39818979487371553  0.17930935469207274  0.42608996236396357  1.0000
  H   H325      1.0  0.440791861115004  0.3523022146117984  0.5465077500719944  1.0000
  H   H326      1.0  0.39886459531580826  0.29343877996279594  0.5463446311364435  1.0000
  H   H327      1.0  0.46808314696242304  0.19249067752014912  0.5135153565360292  1.0000
  H   H328      1.0  0.5113915788435397  0.25122035354593103  0.5136615280497047  1.0000
  H   H329      1.0  0.3726932977705151  0.1191433031188251  0.5030863367994454  1.0000
  H   H330      1.0  0.38372833035913223  0.03901207533946072  0.514159358567295  1.0000
  H   H331      1.0  0.45884991403076963  0.08201883661818198  0.5731872289593675  1.0000
  H   H332      1.0  0.44917997998490866  0.16312430990844112  0.5621735231680817  1.0000
  H   H333      1.0  0.40416697416245456  0.21883137934334645  0.5853597147213846  1.0000
  H   H334      1.0  0.36024510528458925  0.21319965788541273  0.6205976416558424  1.0000
  H   H335      1.0  0.2887291398435533  0.18944148612518225  0.5550725534022826  1.0000
  H   H336      1.0  0.33103512006479696  0.19567652445468484  0.5204277862334643  1.0000
  C   C529      1.0  0.37576645276657694  0.6196861024961835  0.4715154082732806  1.0000
  C   C530      1.0  0.375661517462399  0.6504511371953894  0.45024639381963405  1.0000
  C   C531      1.0  0.35146779698321157  0.6846570678190864  0.44911091655398117  1.0000
  C   C532      1.0  0.3257275986943111  0.6866233387856016  0.46861104384938124  1.0000
  C   C533      1.0  0.32627492732935875  0.6540918639478115  0.48962161011942773  1.0000
  C   C534      1.0  0.35139631086241796  0.6224661737349196  0.4918035906858874  1.0000
  H   H337      1.0  0.3949338004272061  0.6477297543094223  0.4342416722860385  1.0000
  H   H338      1.0  0.35501095296917295  0.7115099999668058  0.434313698829009  1.0000
  H   H339      1.0  0.3064293427084939  0.6530154518667152  0.5053191596315314  1.0000
  H   H340      1.0  0.35103587379871  0.5981853196647778  0.5084226562624669  1.0000
  C   C535      1.0  0.25953092929425975  0.6609354582713021  0.44533164147576354  1.0000
  C   C536      1.0  0.2618944000917944  0.6981048024314537  0.46446104391763887  1.0000
  C   C537      1.0  0.23177692799675748  0.716965844996338  0.47445578596866517  1.0000
  C   C538      1.0  0.20128427241314772  0.704518587021847  0.4630692368961204  1.0000
  C   C539      1.0  0.20138118491283574  0.6725027851566423  0.44101216732526705  1.0000
  C   C540      1.0  0.23015421254014926  0.6488199911427533  0.433459972452035  1.0000
  C   C541      1.0  0.29693465506799277  0.7237569657749595  0.46720017097825284  1.0000
  C   C542      1.0  0.29415291851867914  0.754027992070217  0.43931318828225663  1.0000
  C   C543      1.0  0.284289076732257  0.8008512303434201  0.44184047256942793  1.0000
  C   C544      1.0  0.28033766495284246  0.8284691953241391  0.41858860975635775  1.0000
  C   C545      1.0  0.2834322124686208  0.8095489651158212  0.3916379721189782  1.0000
  C   C546      1.0  0.29268706519407706  0.7635088088002944  0.3886742917185149  1.0000
  C   C547      1.0  0.29798038930720006  0.7364884451038862  0.4119049702542408  1.0000
  C   C548      1.0  0.2856272043147752  0.7494276180194172  0.5191546111650737  1.0000
  C   C549      1.0  0.2848757531230217  0.7843502524521759  0.5388263311069623  1.0000
  C   C550      1.0  0.3039195771255724  0.8244625667620222  0.535659281643994  1.0000
  C   C551      1.0  0.3283550810925531  0.8238576329819438  0.5150787562040363  1.0000
  C   C552      1.0  0.3281347798472803  0.7886845278058632  0.4949727585765902  1.0000
  C   C553      1.0  0.304555154652314  0.7529171367483184  0.49533289129144276  1.0000
  C   C554      1.0  0.2914426593325154  0.873333372559159  0.5481071630114868  1.0000
  C   C555      1.0  0.23496944295478042  0.9186878811402612  0.47378848123232076  1.0000
  C   C556      1.0  0.22036932207208645  0.8906326019787277  0.4933542797874879  1.0000
  C   C557      1.0  0.23832306821073362  0.8773123443839722  0.5169090777665812  1.0000
  C   C558      1.0  0.271544706460528  0.8906310690124418  0.5213387101592679  1.0000
  C   C559      1.0  0.28596991439535235  0.9173905223768503  0.5003662755884412  1.0000
  C   C560      1.0  0.26815230443007815  0.9313953428765664  0.4772987159882661  1.0000
  C   C561      1.0  0.31939253513783133  0.9073941518584857  0.5590001184219101  1.0000
  C   C562      1.0  0.3477540175396803  0.8907292227546467  0.5723652789984097  1.0000
  C   C563      1.0  0.3728083748885639  0.9204085344376425  0.5812986887544882  1.0000
  C   C564      1.0  0.37053709847694816  0.9676542429681578  0.576941082904772  1.0000
  C   C565      1.0  0.3415315824440098  0.9855426754589179  0.5655079284220698  1.0000
  C   C566      1.0  0.31572680255811514  0.95576644968609  0.5581866421718902  1.0000
  C   C567      1.0  0.2434667504412392  0.9012534229819016  0.5822562180904491  1.0000
  C   C568      1.0  0.225428484225756  0.90127365220642  0.6074210211477069  1.0000
  C   C569      1.0  0.23298986059752252  0.8694304091268191  0.628122296968527  1.0000
  C   C570      1.0  0.2601535197837075  0.8394346617499372  0.6231969524859843  1.0000
  C   C571      1.0  0.277472487507261  0.8401680153282817  0.5976338850146544  1.0000
  C   C572      1.0  0.269653775299541  0.8705041907549006  0.5764940946528079  1.0000
  H   H341      1.0  0.281275636848875  0.6441759525668465  0.43670752216891146  1.0000
  H   H342      1.0  0.2327243700638487  0.7487567822445236  0.4867172456955284  1.0000
  H   H343      1.0  0.1779674600503396  0.7216184088827983  0.46803906836108594  1.0000
  H   H344      1.0  0.22969012667952277  0.6249409003573344  0.4154724025590158  1.0000
  H   H345      1.0  0.27837959244427635  0.8163311437694222  0.4622049183804742  1.0000
  H   H346      1.0  0.27222653568804966  0.8649009779627065  0.42142306606502106  1.0000
  H   H347      1.0  0.29697583028251967  0.7480973925918477  0.36806834514574405  1.0000
  H   H348      1.0  0.30564133516380104  0.7004586373458186  0.40845193304712485  1.0000
  H   H349      1.0  0.2687053221242491  0.721058414452251  0.5216776585967762  1.0000
  H   H350      1.0  0.2644832237391631  0.7832014736702156  0.5541023134999151  1.0000
  H   H351      1.0  0.34566741672338624  0.8521589881566795  0.5125196955008485  1.0000
  H   H352      1.0  0.3462393419668184  0.7885906738740576  0.4779469548750008  1.0000
  H   H353      1.0  0.19499037945997544  0.8802789218835023  0.49095833801985106  1.0000
  H   H354      1.0  0.22470841149603066  0.855345833707556  0.530761476721999  1.0000
  H   H355      1.0  0.3118681068871636  0.9275297204958098  0.5022071892896582  1.0000
  H   H356      1.0  0.2801990949379457  0.9537344111327879  0.4622854186343824  1.0000
  H   H357      1.0  0.3516541430699264  0.8539147039669615  0.5751361824750402  1.0000
  H   H358      1.0  0.394943948507179  0.9061775167514222  0.5910498116160554  1.0000
  H   H359      1.0  0.33879884587483333  0.02253836797403208  0.5629594598575541  1.0000
  H   H360      1.0  0.2926172723696679  0.9705715183324706  0.5511238041053107  1.0000
  H   H361      1.0  0.23908770879661523  0.9285566686387627  0.5674145133830539  1.0000
  H   H362      1.0  0.2043834385260029  0.9245748654002779  0.6093233692532223  1.0000
  H   H363      1.0  0.2667868029505199  0.8131952019917311  0.6383776056308877  1.0000
  H   H364      1.0  0.2988863197027395  0.8170899228309965  0.5953756410497553  1.0000
  C   C573      1.0  0.2028195459665047  0.7588562880459107  0.19439201313757912  1.0000
  C   C574      1.0  0.19402800148431865  0.8050336596898977  0.1983327124091601  1.0000
  C   C575      1.0  0.2121615563329243  0.833786496270645  0.2158381281498237  1.0000
  C   C576      1.0  0.23901435588252368  0.817474038640392  0.23140645357012737  1.0000
  C   C577      1.0  0.247911245863527  0.77138350327332  0.22702554501533243  1.0000
  C   C578      1.0  0.23091281235702368  0.743152584867961  0.2077709434943525  1.0000
  H   H365      1.0  0.17350472738935988  0.8192829431517402  0.18641655640300853  1.0000
  H   H366      1.0  0.20502793643717016  0.8701957121954783  0.2171091847904799  1.0000
  H   H367      1.0  0.269557623731628  0.7572385709215019  0.23719399814058176  1.0000
  H   H368      1.0  0.23844895462223226  0.7070408854711013  0.20457042287318025  1.0000
  C   C579      1.0  0.2882171360223841  0.7960927427758969  0.285875467477713  1.0000
  C   C580      1.0  0.2926503678911031  0.8314373138199248  0.266777841451854  1.0000
  C   C581      1.0  0.3242120915548043  0.8523458754573472  0.2666803937760704  1.0000
  C   C582      1.0  0.34899414151557734  0.8402057658645902  0.28543907136442104  1.0000
  C   C583      1.0  0.34172036477631734  0.8088216313538586  0.3056975957887459  1.0000
  C   C584      1.0  0.3131074462158818  0.7839666664981279  0.30419986738050603  1.0000
  C   C585      1.0  0.26127077361311096  0.8527856029736715  0.25055068500614364  1.0000
  C   C586      1.0  0.24013802876714851  0.8742640543878413  0.2767047938153787  1.0000
  C   C587      1.0  0.2547949035720496  0.9076917153760475  0.29466270572011594  1.0000
  C   C588      1.0  0.2505079044775084  0.9064391880936798  0.3229055842754959  1.0000
  C   C589      1.0  0.2302468851673994  0.8737513955132945  0.3346077790804704  1.0000
  C   C590      1.0  0.21023050434267673  0.8477493008958664  0.31705660530074314  1.0000
  C   C591      1.0  0.2143334692382513  0.8484735151800075  0.28802779005589074  1.0000
  C   C592      1.0  0.29259823405330676  0.8695113645804714  0.20374614264171476  1.0000
  C   C593      1.0  0.3149366297461001  0.8976011035518991  0.19072247261600475  1.0000
  C   C594      1.0  0.32159416530950424  0.9426379158545054  0.20079644386429865  1.0000
  C   C595      1.0  0.2969753786948985  0.9624422808645328  0.21843532055223117  1.0000
  C   C596      1.0  0.2728275588053359  0.9351054055501845  0.2309001493415993  1.0000
  C   C597      1.0  0.27381226000330633  0.8869972997436646  0.22654042506414865  1.0000
  C   C598      1.0  0.35441338989153953  0.9710294486243158  0.19204543073615438  1.0000
  C   C599      1.0  0.41718597320363543  0.024620411714006307  0.26192664194001636  1.0000
  C   C600      1.0  0.3874697816333265  0.002984861171176467  0.26785400274094295  1.0000
  C   C601      1.0  0.36529663310393673  0.9920466259770915  0.2461041051915815  1.0000
  C   C602      1.0  0.37272370359197554  0.0004002503921263223  0.2178146212260441  1.0000
  C   C603      1.0  0.40178991446382006  0.02687467957073797  0.21373241098180334  1.0000
  C   C604      1.0  0.4240420859523187  0.03763337283131918  0.23485737234950882  1.0000
  C   C605      1.0  0.34495805009050406  0.006451775078565536  0.16707827698651873  1.0000
  C   C606      1.0  0.3123634693159801  0.01876098533239423  0.1602238922090069  1.0000
  C   C607      1.0  0.305991764495351  0.04424882343539899  0.13680213149163573  1.0000
  C   C608      1.0  0.33141968747894224  0.06183734828580424  0.12065547529983355  1.0000
  C   C609      1.0  0.363911605863954  0.05271195134470029  0.12753210356855685  1.0000
  C   C610      1.0  0.37020834311235606  0.024664872553497696  0.15006264173805464  1.0000
  C   C611      1.0  0.40163458429820076  0.9111514275714651  0.20341482054405036  1.0000
  C   C612      1.0  0.4258150072913334  0.8794869156204999  0.19547050469717586  1.0000
  C   C613      1.0  0.4300935711975008  0.8673603054595007  0.167356426548049  1.0000
  C   C614      1.0  0.4091003357228431  0.885001181234939  0.14732690416181565  1.0000
  C   C615      1.0  0.38568626482615254  0.9176146600343953  0.15488312404774315  1.0000
  C   C616      1.0  0.3818720125552544  0.9330638119342568  0.18333678616269863  1.0000
  H   H369      1.0  0.26394801177249105  0.7795667223075334  0.2882459881125367  1.0000
  H   H370      1.0  0.32958299793604734  0.8820760585220726  0.25426428882459406  1.0000
  H   H371      1.0  0.37329282877375336  0.8561260455412407  0.2856848089816145  1.0000
  H   H372      1.0  0.30844317500743446  0.7587292534214465  0.31995673286917364  1.0000
  H   H373      1.0  0.2755530117149863  0.9286385436775924  0.2883794490598056  1.0000
  H   H374      1.0  0.26637488250003266  0.9292778037500625  0.3352200046957198  1.0000
  H   H375      1.0  0.1941002342683179  0.8222459894411134  0.3263077792169856  1.0000
  H   H376      1.0  0.20127808476702422  0.8226561289880256  0.27535747377628317  1.0000
  H   H377      1.0  0.2938555897217549  0.8322831393623285  0.19888562204784554  1.0000
  H   H378      1.0  0.3299363657874077  0.8815249563711396  0.17426461939001525  1.0000
  H   H379      1.0  0.29800386617597535  0.9987193186038972  0.22494736740785962  1.0000
  H   H380      1.0  0.25611926046949224  0.9519488803976051  0.2463011189708832  1.0000
  H   H381      1.0  0.38343617532790286  0.9907015285504308  0.2889302402707566  1.0000
  H   H382      1.0  0.34514038655716833  0.969588028543668  0.25214162423469827  1.0000
  H   H383      1.0  0.4103371688196508  0.0343669584340669  0.19290254659750353  1.0000
  H   H384      1.0  0.4471758430324388  0.05535619493494953  0.22959731628492674  1.0000
  H   H385      1.0  0.2906058845004723  0.010825927413744552  0.17274168169173573  1.0000
  H   H386      1.0  0.28046122055448214  0.050107084181427626  0.13023500551491218  1.0000
  H   H387      1.0  0.38436843447555835  0.06682625280256133  0.11519501597157465  1.0000
  H   H388      1.0  0.3965476673313283  0.0163621950476327  0.1536567662322834  1.0000
  H   H389      1.0  0.39891572251095064  0.9181827047628907  0.22606801567937146  1.0000
  H   H390      1.0  0.44186729030029775  0.8658220002860059  0.21167329922394038  1.0000
  H   H391      1.0  0.4107180882997808  0.8746232927045878  0.12521348441322655  1.0000
  H   H392      1.0  0.3695827995487386  0.9290076994626189  0.13811428563033978  1.0000
  C   C617      1.0  0.17206149620195124  0.881693231672193  0.43255116695396584  1.0000
  C   C618      1.0  0.1750194000726185  0.8355270271697147  0.4383768432236399  1.0000
  C   C619      1.0  0.15146848235643054  0.8151915101339702  0.4546039996693503  1.0000
  C   C620      1.0  0.12440769242054561  0.8402295261511714  0.46516859878093747  1.0000
  C   C621      1.0  0.11932097213841347  0.8844599110522496  0.4546696709291175  1.0000
  C   C622      1.0  0.14321814917693027  0.9055061111475557  0.43889373959084005  1.0000
  H   H393      1.0  0.19676467899952507  0.814963403316174  0.43375231547938586  1.0000
  H   H394      1.0  0.154997076828664  0.7801658666876162  0.459048461056178  1.0000
  H   H395      1.0  0.09779905746361632  0.9047223556918401  0.4612198494839656  1.0000
  H   H396      1.0  0.14052452225561526  0.9421743982531825  0.4343751332333074  1.0000
  C   C623      1.0  0.1265357726871398  0.8891267704589984  0.5223407264776518  1.0000
  C   C624      1.0  0.09874553656370359  0.8626312177461469  0.5142652799540164  1.0000
  C   C625      1.0  0.06958806300330257  0.8726591290281627  0.5292065507649296  1.0000
  C   C626      1.0  0.0661765261210009  0.9134671713002028  0.5451710221715711  1.0000
  C   C627      1.0  0.09330652570789734  0.9421131335565052  0.5499629057068448  1.0000
  C   C628      1.0  0.1242565067581156  0.9284809858156758  0.539707597044484  1.0000
  C   C629      1.0  0.10273852740298824  0.8219989290590444  0.4908418244944576  1.0000
  C   C630      1.0  0.12092419735932032  0.7829395894298007  0.5094034883035065  1.0000
  C   C631      1.0  0.10140815298908541  0.7499513234862749  0.5218090011163107  1.0000
  C   C632      1.0  0.1144099253023772  0.7189305730612862  0.5402054275620742  1.0000
  C   C633      1.0  0.14783201777107027  0.718430872918584  0.5465670660485584  1.0000
  C   C634      1.0  0.1682375133438999  0.7514483072368479  0.5352080565365611  1.0000
  C   C635      1.0  0.15533057160727642  0.7829351516922536  0.5167332482646237  1.0000
  C   C636      1.0  0.0421278884610246  0.8359393150857775  0.4718119881561003  1.0000
  C   C637      1.0  0.5035935175019871  0.8093859763403112  0.4406244950498669  1.0000
  C   C638      1.0  0.5094319413388578  0.7717272689487991  0.4224695693658279  1.0000
  C   C639      1.0  0.03951773026415977  0.7482721960273145  0.4473314372570626  1.0000
  C   C640      1.0  0.06806050191859761  0.7635507019322965  0.4603555309683195  1.0000
  C   C641      1.0  0.06933352553577216  0.806275433759516  0.4743350355878028  1.0000
  C   C642      1.0  0.4790882303707751  0.7455816030636904  0.40628266304707167  1.0000
  C   C643      1.0  0.45447844462150705  0.6402570331421619  0.46756030369310553  1.0000
  C   C644      1.0  0.4482202818704858  0.6873830086573144  0.47350673034364194  1.0000
  C   C645      1.0  0.4570877046524178  0.7201795223271699  0.4541082875794944  1.0000
  C   C646      1.0  0.47164207475544984  0.7064764926336464  0.42839904859448896  1.0000
  C   C647      1.0  0.48173117240465263  0.6602367532106727  0.4249735509479206  1.0000
  C   C648      1.0  0.4727143886390958  0.62750232363404  0.4438508604893991  1.0000
  C   C649      1.0  0.4867326167205553  0.7255111110945711  0.37522015717716933  1.0000
  C   C650      1.0  0.5120057524259634  0.7441015711065846  0.35896334274317704  1.0000
  C   C651      1.0  0.5137695040435145  0.7348194948532464  0.3302904233577083  1.0000
  C   C652      1.0  0.4903247624175942  0.7052920610171712  0.31747393556442527  1.0000
  C   C653      1.0  0.46571750816980495  0.6856049013906258  0.333504078230834  1.0000
  C   C654      1.0  0.46375035067297604  0.6964284592957614  0.3619524442764534  1.0000
  C   C655      1.0  0.41554698031869136  0.765361072690059  0.4027342965919065  1.0000
  C   C656      1.0  0.3897933460796868  0.789987885154102  0.390729166620909  1.0000
  C   C657      1.0  0.396605619720443  0.8276526484671659  0.3742266145697231  1.0000
  C   C658      1.0  0.4286815211186816  0.8437448592580894  0.3726822807513259  1.0000
  C   C659      1.0  0.45380196930219363  0.8221280012988527  0.38656857455049454  1.0000
  C   C660      1.0  0.448055117048497  0.7802254979765593  0.4002599729980959  1.0000
  H   H397      1.0  0.15052520938049554  0.8819120097646811  0.513970818498931  1.0000
  H   H398      1.0  0.04751851222558145  0.8513002719828319  0.5272385313996469  1.0000
  H   H399      1.0  0.041849198115872815  0.9230828136422848  0.5533841664979443  1.0000
  H   H400      1.0  0.14633517840944346  0.948768752814138  0.5443130589391281  1.0000
  H   H401      1.0  0.07460393140111209  0.7502043828028966  0.5186588990752178  1.0000
  H   H402      1.0  0.09789245209687526  0.6939066280780518  0.5496557336853529  1.0000
  H   H403      1.0  0.1947468896146198  0.7517592953933442  0.5397457287437036  1.0000
  H   H404      1.0  0.17256694738462156  0.8081470371331505  0.5085201039382504  1.0000
  H   H405      1.0  0.041681765206818475  0.8706776543689002  0.4807898848946017  1.0000
  H   H406      1.0  0.47969923256888997  0.8257830486528139  0.4413066287803524  1.0000
  H   H407      1.0  0.03882088877544373  0.7120055495807522  0.4400906512607913  1.0000
  H   H408      1.0  0.09055063222745045  0.7413286586228005  0.45976872648588313  1.0000
  H   H409      1.0  0.43518844932706824  0.6987027903938119  0.49268273819567465  1.0000
  H   H410      1.0  0.44899975115614815  0.755703731410357  0.45783248353661693  1.0000
  H   H411      1.0  0.4955829621159685  0.6474496748512306  0.4066999933107538  1.0000
  H   H412      1.0  0.4798192424644308  0.591452233144889  0.4393915701084304  1.0000
  H   H413      1.0  0.02044372734704014  0.7527518132446516  0.3891975433689184  1.0000
  H   H414      1.0  0.5310110740532632  0.7523235251233442  0.3166413934647955  1.0000
  H   H415      1.0  0.4463168729926538  0.664761694083718  0.32376142908020444  1.0000
  H   H416      1.0  0.442697305124982  0.6824497803377197  0.37312291372008666  1.0000
  H   H417      1.0  0.4102971583790582  0.7316343314530022  0.41126944193391274  1.0000
  H   H418      1.0  0.3642710133746785  0.7783239239411446  0.3921548684861784  1.0000
  H   H419      1.0  0.4362042983464356  0.8704281925700627  0.35826849844628494  1.0000
  H   H420      1.0  0.4787892122727036  0.8341397083196813  0.3830265633785327  1.0000
  C   C661      1.0  0.49731539929112845  0.9786161100880842  0.27528544723331266  1.0000
  C   C662      1.0  0.4956235158620866  0.9604420967841388  0.2479280714709231  1.0000
  C   C663      1.0  0.523400583810442  0.9435135974200187  0.23431505484949555  1.0000
  C   C664      1.0  0.9998763977174203  0.9216994405692652  0.28126153187213104  1.0000
  C   C665      1.0  0.0007446810332201181  0.9524239114783363  0.30462567135512586  1.0000
  C   C666      1.0  0.5281959439138926  0.9799914250025761  0.288396396481681  1.0000
  H   H421      1.0  0.4719255301383984  0.9581864765068974  0.2370774846151883  1.0000
  H   H422      1.0  0.5195170547291925  0.9295723093259484  0.21308417209506872  1.0000
  H   H423      1.0  0.024917754512470004  0.9602758223920878  0.3137285553299584  1.0000
  H   H424      1.0  0.5303201589535304  0.9955096413729274  0.30934340991969467  1.0000
  C   C667      1.0  0.028232938968819312  0.9627603638871135  0.22850632600169687  1.0000
  C   C668      1.0  0.044770110563054875  0.9475666311619301  0.25276656041635426  1.0000
  C   C669      1.0  0.07323300576000963  0.9709510492612663  0.2609203887661636  1.0000
  C   C670      1.0  0.08606330304594804  0.00639868185326109  0.2457969331700896  1.0000
  C   C671      1.0  0.07098793260128179  0.018178817838362615  0.2207486436382254  1.0000
  C   C672      1.0  0.041460124699495005  0.9965934301822283  0.21215206389192084  1.0000
  C   C673      1.0  0.033548218265322734  0.9012555993879559  0.2670617107682673  1.0000
  C   C674      1.0  0.031527326919991626  0.860643343144988  0.2424561726328983  1.0000
  C   C675      1.0  0.05434508511943816  0.8585068036943841  0.2203419055132154  1.0000
  C   C676      1.0  0.051401309632451896  0.8273134968460879  0.19794482829098653  1.0000
  C   C677      1.0  0.027837093064789684  0.792352029215648  0.19856446840330644  1.0000
  C   C678      1.0  0.006950415834546364  0.7913758928427387  0.2215981331597306  1.0000
  C   C679      1.0  0.009367537845816454  0.8241606172058532  0.24328659630479363  1.0000
  C   C680      1.0  0.09264685582917212  0.8702294261762513  0.283379959606558  1.0000
  C   C681      1.0  0.1081934737524634  0.8297983136993498  0.29181553884504613  1.0000
  C   C682      1.0  0.08869492009733795  0.7936973155482421  0.3019373865601381  1.0000
  C   C683      1.0  0.05947619138161859  0.807688580714321  0.3148259008963916  1.0000
  C   C684      1.0  0.04500451210446073  0.8496227504784847  0.30914639614039297  1.0000
  C   C685      1.0  0.05838844753302904  0.8764872266038684  0.2879684740793268  1.0000
  C   C686      1.0  0.09776249524336651  0.739557163594013  0.29683621257563797  1.0000
  C   C687      1.0  0.14190989902652898  0.7021446336293444  0.21462426905799709  1.0000
  C   C688      1.0  0.1436785292167355  0.6719006775408615  0.2368190364315882  1.0000
  C   C689      1.0  0.13090533283733125  0.6847945460491675  0.2627104602017543  1.0000
  C   C690      1.0  0.11479297680218643  0.7272139607131867  0.26688588126630985  1.0000
  C   C691      1.0  0.11177750485701142  0.7548738317359898  0.2433459122813576  1.0000
  C   C692      1.0  0.12596608131338208  0.7430630757196642  0.2178336870756539  1.0000
  C   C693      1.0  0.06492706678283909  0.7075544571627914  0.2932454775657843  1.0000
  C   C694      1.0  0.038634011244355226  0.7229575604731344  0.2767831756415525  1.0000
  C   C695      1.0  0.00782406379917977  0.7020465813394665  0.2776305467353233  1.0000
  C   C696      1.0  0.0030915957794248605  0.6662223009504356  0.295357550017008  1.0000
  C   C697      1.0  0.030303538896070004  0.6461890031231264  0.3085892496462387  1.0000
  C   C698      1.0  0.060786068885208766  0.6664773913962952  0.3071677846364382  1.0000
  C   C699      1.0  0.10504047995616093  0.7285143845729589  0.3506188558972692  1.0000
  C   C700      1.0  0.12299732228565655  0.7247830922077192  0.3748430770404414  1.0000
  C   C701      1.0  0.1566301240105766  0.7180021613724434  0.3730699530267261  1.0000
  C   C702      1.0  0.17215771356154447  0.7191907983270086  0.347348003475314  1.0000
  C   C703      1.0  0.1544212797188399  0.7274918724759843  0.32349027033019784  1.0000
  C   C704      1.0  0.12006284162763141  0.7304087669172576  0.32415333821107345  1.0000
  H   H425      1.0  0.005151358238139503  0.9462803906181652  0.22157906731012075  1.0000
  H   H426      1.0  0.0868508390894198  0.9632398273391835  0.27971931648146825  1.0000
  H   H427      1.0  0.10829704640262271  0.023755273530497556  0.2533703123206659  1.0000
  H   H428      1.0  0.02879039424336125  0.0038981803802118353  0.1927133710008192  1.0000
  H   H429      1.0  0.07399088407249657  0.8846408455947982  0.22005803619680223  1.0000
  H   H430      1.0  0.06886544277115028  0.8291920763215676  0.18039068871243108  1.0000
  H   H431      1.0  0.9899274081310653  0.7623295117313278  0.22422498355042  1.0000
  H   H432      1.0  0.993586059767368  0.8205322581634341  0.26158557507477365  1.0000
  H   H433      1.0  0.1057122053833583  0.8917605436771782  0.2687924662272941  1.0000
  H   H434      1.0  0.1339869716415888  0.8244140445354323  0.2856254930050506  1.0000
  H   H435      1.0  0.0449012057069676  0.7832620464761179  0.3265069114240218  1.0000
  H   H436      1.0  0.01960722114722646  0.8540350370840888  0.316480392956979  1.0000
  H   H437      1.0  0.15606327064598124  0.6387640099062358  0.23404177767175446  1.0000
  H   H438      1.0  0.13358033109408315  0.6612256565902122  0.2798803169892847  1.0000
  H   H439      1.0  0.09664134171722681  0.7859760768597729  0.24440936300403995  1.0000
  H   H440      1.0  0.12303969060569346  0.7651035344737922  0.20014248522268105  1.0000
  H   H441      1.0  0.04327251125474168  0.7515396819029826  0.26284815800449207  1.0000
  H   H442      1.0  0.5372219985855059  0.7381002907916979  0.24759971517208693  1.0000
  H   H443      1.0  0.02722986636868483  0.6153715837909473  0.3206854720098165  1.0000
  H   H444      1.0  0.08137431742770876  0.6506098479559106  0.3182852933867108  1.0000
  H   H445      1.0  0.07796157262357153  0.7321950055449331  0.35335162767468004  1.0000
  H   H446      1.0  0.11011805286515712  0.7231975240056592  0.3953219179491467  1.0000
  H   H447      1.0  0.19847744551016833  0.7137305499930676  0.3447359820787656  1.0000
  H   H448      1.0  0.1671458990540616  0.7303363873258489  0.3036469577418206  1.0000
  C   C705      1.0  0.4877996142837435  0.6980852209434222  0.28518274160855533  1.0000
  C   C706      1.0  0.5139131090837841  0.6630420026791027  0.2719404498406525  1.0000
  H   H449      1.0  0.46295871263828714  0.6833551303192714  0.27991421183303555  1.0000
  H   H450      1.0  0.48878908038363866  0.7329094441337309  0.2752896840887815  1.0000
  H   H451      1.0  0.5074433557051328  0.6541118960422214  0.24938978660767766  1.0000
  H   H452      1.0  0.5118626031541135  0.6305019796271737  0.28331216991905633  1.0000
  C   C707      1.0  0.1818436413756402  0.7265861669775542  0.1743671512923615  1.0000
  C   C708      1.0  0.16056847745589886  0.6884205611318946  0.18803842467648582  1.0000
  H   H453      1.0  0.16505265622660337  0.7466354541260788  0.16030545167678234  1.0000
  H   H454      1.0  0.19926454238623462  0.7094768203011759  0.1589375828886629  1.0000
  H   H455      1.0  0.178018509129543  0.6593087252563359  0.1924985624285483  1.0000
  H   H456      1.0  0.14273904213183244  0.6726209384927819  0.17234129884992902  1.0000
  C   C709      1.0  0.46548097826981083  0.9903100067130103  0.29180494670637397  1.0000
  C   C710      1.0  0.44442337937399856  0.03266673131058928  0.2840451459151681  1.0000
  H   H457      1.0  0.47160048971565033  0.9941353048581635  0.31415435930457825  1.0000
  H   H458      1.0  0.44901640110129853  0.9598447393706152  0.29161640663801  1.0000
  H   H459      1.0  0.46094638833645063  0.061408002597389766  0.2776813890009496  1.0000
  H   H460      1.0  0.43257436337608457  0.047313383610630665  0.3036850894410403  1.0000
  C   C711      1.0  0.36642462401193554  0.8006134468329776  0.3294599996858129  1.0000
  C   C712      1.0  0.370939644093303  0.840693947324621  0.35175221473518764  1.0000
  H   H461      1.0  0.3596265525213557  0.7684448205877988  0.34015594131693455  1.0000
  H   H462      1.0  0.39082597091298804  0.7919827716399032  0.3197194689629178  1.0000
  H   H463      1.0  0.379628565315645  0.8725340906023683  0.34168332771345644  1.0000
  H   H464      1.0  0.34691564876113207  0.8498478287716486  0.3624629853604503  1.0000
  C   C713      1.0  0.17363562490158835  0.6708772691702428  0.419249559209499  1.0000
  C   C714      1.0  0.17845919564565693  0.7143800061722279  0.4001582884668433  1.0000
  H   H465      1.0  0.17618212995791893  0.63839359795406  0.40625724191425855  1.0000
  H   H466      1.0  0.14866323214145383  0.6697526224210727  0.42877189187574816  1.0000
  H   H467      1.0  0.2047124685791201  0.7157501088653655  0.39438557289052995  1.0000
  H   H468      1.0  0.1754059029731204  0.7468176884979126  0.4132078033109134  1.0000
  C   C715      1.0  0.20240970100675723  0.9084456245258955  0.42525742026433383  1.0000
  C   C716      1.0  0.21563566371576526  0.941146428119681  0.4491935352356239  1.0000
  H   H469      1.0  0.22238243527437723  0.883754013095032  0.41902500586964975  1.0000
  H   H470      1.0  0.19612274393216134  0.9282175422835667  0.4059055829103436  1.0000
  H   H471      1.0  0.19477725787809486  0.962488957854332  0.45831548506006625  1.0000
  H   H472      1.0  0.23186205191864417  0.9685257509770696  0.44052704737408327  1.0000
  C   C717      1.0  0.4042665010861665  0.5845874441654567  0.47166793507015936  1.0000
  C   C718      1.0  0.43689209979572474  0.6038484292761304  0.4853678072286984  1.0000
  H   H473      1.0  0.3963576689023181  0.5545057189338612  0.4839378685079602  1.0000
  H   H474      1.0  0.40900891138532713  0.5694362626328426  0.4501722488489291  1.0000
  H   H475      1.0  0.4537818082876793  0.5740500045692465  0.4890072660764439  1.0000
  H   H476      1.0  0.43251583745097455  0.617411871878267  0.5070668625124336  1.0000
  C   C719      1.0  0.2732770133145393  0.8344534177659368  0.3648440981339462  1.0000
  C   C720      1.0  0.23850740533561182  0.8598790854178742  0.3650305197745758  1.0000
  H   H477      1.0  0.27016350973507236  0.808110099150131  0.348017426639393  1.0000
  H   H478      1.0  0.29354119942581336  0.8565028186663819  0.357673220252911  1.0000
  H   H479      1.0  0.23965615442971167  0.8914436544802616  0.377798283729967  1.0000
  H   H480      1.0  0.2186999004389613  0.8382877208945627  0.37413764060487725  1.0000
  C   C721      1.0  0.4244100349985283  0.007871826165191775  0.5566910321913848  1.0000
  C   C722      1.0  0.4022851344010554  0.9974883847680754  0.5828536147115575  1.0000
  H   H481      1.0  0.4202497039182241  0.9821050598625192  0.539766913021048  1.0000
  H   H482      1.0  0.4500067163779839  0.0023101085889019046  0.563673370004056  1.0000
  H   H483      1.0  0.39628792302648475  0.030644224736973147  0.5946913888915353  1.0000
  H   H484      1.0  0.4194960415806691  0.9801516760782734  0.5980363862841954  1.0000
  C   C723      1.0  0.3242144263208832  0.08795715672724629  0.09322183613900462  1.0000
  C   C724      1.0  0.3382164942722629  0.13811608266817102  0.09148070038407909  1.0000
  H   H485      1.0  0.29698678811274526  0.086619150157624  0.08706187197283795  1.0000
  H   H486      1.0  0.3354539980789564  0.06635472042346324  0.0759075025799863  1.0000
  H   H487      1.0  0.33719183670190483  0.1481784343951134  0.06923614995872895  1.0000
  H   H488      1.0  0.3651983261630028  0.14028566762952002  0.09685748181682813  1.0000
  C   C725      1.0  0.2756579735722657  0.10419726431685189  0.3740105349408116  1.0000
  C   C726      1.0  0.2698671389478654  0.09412979204131534  0.342043460428309  1.0000
  H   H489      1.0  0.28609722513760844  0.07285056953756087  0.3837870789351919  1.0000
  H   H490      1.0  0.251385290068371  0.10902488629653183  0.3840179875582445  1.0000
  H   H491      1.0  0.24898783523064105  0.0685654419843099  0.34049277132670847  1.0000
  H   H492      1.0  0.2914525571331753  0.07441511767211624  0.33265458870932874  1.0000
  C   C727      1.0  0.025138593139840654  0.7558486081970718  0.1740748082650106  1.0000
  C   C728      1.0  0.05761587037343087  0.729224862876871  0.16484714889662028  1.0000
  H   H493      1.0  0.005364325553231186  0.7302633713858567  0.17862942789402853  1.0000
  H   H494      1.0  0.015859688245652537  0.7743874392023834  0.15542861918935807  1.0000
  H   H495      1.0  0.07970649885590106  0.7502853600654408  0.17047348111648478  1.0000
  H   H496      1.0  0.05736474106346405  0.7239030550428539  0.1416978179858964  1.0000
  C   C729      1.0  0.5119223245574308  0.27782440960093163  0.33136870307453165  1.0000
  C   C730      1.0  0.47970109977366254  0.24918090376532626  0.32699203137520555  1.0000
  H   H497      1.0  0.5208949617845317  0.27379622877378734  0.353554996737185  1.0000
  H   H498      1.0  0.5320769810003163  0.26293124196803397  0.31808404275194024  1.0000
  H   H499      1.0  0.48734013781077745  0.21256523793468898  0.3299620670588721  1.0000
  H   H500      1.0  0.47034194444041216  0.2502592410825066  0.30528026552506377  1.0000
  C   C731      1.0  0.3556192546267266  0.37335614955206  0.3288837873420488  1.0000
  C   C732      1.0  0.3516266802452123  0.42088388778807906  0.3153597446854672  1.0000
  H   H501      1.0  0.35410999979802765  0.37806379484385777  0.3525084934363781  1.0000
  H   H502      1.0  0.38040740013030233  0.3583426878278463  0.3242613780255292  1.0000
  H   H503      1.0  0.3323548896337857  0.44138848385672663  0.3267547674689497  1.0000
  H   H504      1.0  0.34031410537393475  0.4159334624237005  0.29459067917714543  1.0000
  C   C733      1.0  0.11737919965052823  0.3805124246431312  0.15985443841212285  1.0000
  C   C734      1.0  0.13614715965738466  0.369687184285898  0.1318075144221773  1.0000
  H   H505      1.0  0.13441795498807182  0.37595349403622164  0.17798012979342667  1.0000
  H   H506      1.0  0.09794559030709633  0.35401525068210854  0.163293705838965  1.0000
  H   H507      1.0  0.13840845182676695  0.4016408843649828  0.11938293575976328  1.0000
  H   H508      1.0  0.12090836107932777  0.34691455614148303  0.11743080460248885  1.0000
  C   C735      1.0  0.18070017327402182  0.6415486478461897  0.5508907770545238  1.0000
  C   C736      1.0  0.16078808564179167  0.6807242955083553  0.5664887604631094  1.0000
  H   H509      1.0  0.2040673769544162  0.6337105536742401  0.5625251821719965  1.0000
  H   H510      1.0  0.19020795075561323  0.6543639354873477  0.5308949376692679  1.0000
  H   H511      1.0  0.17622935748860163  0.6956927184544989  0.5835082088814955  1.0000
  H   H512      1.0  0.13953721662491733  0.665422452799848  0.5777185458833066  1.0000
  C   C737      1.0  0.06890585235072402  0.6371030820977531  0.3895343733786922  1.0000
  C   C738      1.0  0.0362502784320427  0.6104291905902645  0.39373945243152975  1.0000
  H   H513      1.0  0.06862658649530665  0.6692339846185177  0.40279149414073606  1.0000
  H   H514      1.0  0.06926999798907302  0.6507544636120921  0.36788192350511445  1.0000
  H   H515      1.0  0.0169759954593951  0.6378160894254089  0.3944004018846709  1.0000
  H   H516      1.0  0.0339130676786759  0.596252226252786  0.41488136122111063  1.0000
  C   C739      1.0  0.11777695236836111  0.36142537107569217  0.2773572695575822  1.0000
  C   C740      1.0  0.09505146306782784  0.3653957824179004  0.30434180203871264  1.0000
  H   H517      1.0  0.10414992878718508  0.34370757527454115  0.2598082142055894  1.0000
  H   H518      1.0  0.12235335772273828  0.3967031834564029  0.2688708480534679  1.0000
  H   H519      1.0  0.08959001915066403  0.3300858371862699  0.31169062784943974  1.0000
  H   H520      1.0  0.07023636116268403  0.3792452549227001  0.2998570905249308  1.0000
  C   C741      1.0  0.00938659841243461  0.37918981633372995  0.522029317600691  1.0000
  C   C742      1.0  0.510825246975274  0.33865044823148915  0.5305009101106645  1.0000
  H   H521      1.0  0.9867734736091462  0.3964195779713912  0.5138521865458031  1.0000
  H   H522      1.0  0.002970692742576997  0.37271826769463173  0.5443427169274101  1.0000
  H   H523      1.0  0.532893952644063  0.3199774124688597  0.5386928701596935  1.0000
  H   H524      1.0  0.5186106770775625  0.34377092167661105  0.5078888124733912  1.0000
  C   C743      1.0  0.31745725990184864  0.45133393627221974  0.41914575625051204  1.0000
  C   C744      1.0  0.3118121640191136  0.48023300662711604  0.3926993044139261  1.0000
  H   H525      1.0  0.2948009217633087  0.4502022926874691  0.4328879969637397  1.0000
  H   H526      1.0  0.3360151993840043  0.4694568987959092  0.4325554038094347  1.0000
  H   H527      1.0  0.32394178413631614  0.5144039449069584  0.3965082374804257  1.0000
  H   H528      1.0  0.3267860446752546  0.46575047196198477  0.37448718118105767  1.0000
  C   C745      1.0  0.11138494373310459  0.9908667910618821  0.5940177288719876  1.0000
  C   C746      1.0  0.08915399235924462  0.9867009344837174  0.5673128288518015  1.0000
  H   H529      1.0  0.10768832356641075  0.02576147956547503  0.6041544055812205  1.0000
  H   H530      1.0  0.1382049626288035  0.990971539349091  0.5871116544577557  1.0000
  H   H531      1.0  0.09701929575927289  0.015387095705740483  0.5532973109608328  1.0000
  H   H532      1.0  0.06267994151357216  0.9942138154394305  0.573110965560928  1.0000
  C   C747      1.0  0.08941522965327514  0.052559425706938674  0.2019958976475312  1.0000
  C   C748      1.0  0.08820828529081076  0.04113476748650635  0.16958670726685368  1.0000
  H   H533      1.0  0.08069920735215623  0.08833290671669827  0.2066750808273334  1.0000
  H   H534      1.0  0.11617214929383395  0.055013413528814094  0.20832724261741298  1.0000
  H   H535      1.0  0.09583144412181822  0.07321755387678679  0.1592801326533197  1.0000
  H   H536      1.0  0.06142904637166386  0.03766406473097361  0.16323841487509644  1.0000
  C   C749      1.0  0.2165989099390442  0.799987144227879  0.9057295409987716  1.0000
  C   C750      1.0  0.2262366486658121  0.8113161890119508  0.8752517211835711  1.0000
  H   H537      1.0  0.2337736417497712  0.7717688805488686  0.9122818379813541  1.0000
  H   H538      1.0  0.19144888977507854  0.7836226441187607  0.90645616171168  1.0000
  H   H539      1.0  0.23026497942705745  0.7775624988327856  0.8639393170817312  1.0000
  H   H540      1.0  0.2511679450447929  0.8282444702086132  0.8743789289569872  1.0000
  C   C751      1.0  0.4588271289535528  0.833298402308962  0.15956908619629553  1.0000
  C   C752      1.0  0.4911487495518682  0.858990776830191  0.15303394847836185  1.0000
  H   H541      1.0  0.46429374173277066  0.8084147287622568  0.17639130899260647  1.0000
  H   H542      1.0  0.45289688145983764  0.8112056819888744  0.1412379073247523  1.0000
  H   H543      1.0  0.511245861309947  0.8337883347958652  0.14987410166969062  1.0000
  H   H544      1.0  0.49785019475130343  0.8808812134616043  0.17121069396806537  1.0000
  C   C753      1.0  0.5000391997284629  0.8302360305396134  0.875414840119122  1.0000
  C   C754      1.0  0.4936723709948502  0.831278827623096  0.8430050142101241  1.0000
  H   H545      1.0  0.47920293765435135  0.8112802627145478  0.8851977393967057  1.0000
  H   H546      1.0  0.5223027007550655  0.8079391882953744  0.8785035077559165  1.0000
  H   H547      1.0  0.47159691945783994  0.8529579549263867  0.837552181221709  1.0000
  H   H548      1.0  0.48665067792597766  0.795957293438777  0.834931686114223  1.0000
  C   C755      1.0  0.3133318601527947  0.891211192119577  0.07996535090528112  1.0000
  C   C756      1.0  0.30647993305182575  0.8844595719354617  0.11206101398126342  1.0000
  H   H549      1.0  0.2939889988757519  0.9139680623896951  0.07092263027810625  1.0000
  H   H550      1.0  0.3090936274709955  0.8571029548427599  0.0690988758415381  1.0000
  H   H551      1.0  0.3142605593063059  0.9171340449356933  0.12329397704306232  1.0000
  H   H552      1.0  0.324476975532211  0.8583462394146745  0.11990936505176839  1.0000
  C   C757      1.0  0.1686394188877294  0.12448955733416267  0.9565633329140806  1.0000
  C   C758      1.0  0.13239215600002885  0.14129261266473447  0.9618191521231938  1.0000
  H   H553      1.0  0.18581796160290345  0.1533533342736753  0.9624165487443022  1.0000
  H   H554      1.0  0.1731312640385536  0.11961635123552829  0.9337266819369581  1.0000
  H   H555      1.0  0.12897361499541424  0.17510385721190744  0.9518053442225576  1.0000
  H   H556      1.0  0.1307598561193308  0.15015961815250506  0.9847532507760999  1.0000
  C   C759      1.0  0.22042476420554666  0.8557109801842409  0.6839365124874737  1.0000
  C   C760      1.0  0.20944522932711346  0.8704658259629772  0.6539925364613488  1.0000
  H   H557      1.0  0.2364490653598637  0.8243245454367133  0.682315915270637  1.0000
  H   H558      1.0  0.19702749715604853  0.8449983686339727  0.6947023622338314  1.0000
  H   H559      1.0  0.19995066497400385  0.9067412164514068  0.6574137972524483  1.0000
  H   H560      1.0  0.18718805927152896  0.8495180414459144  0.6483215054162879  1.0000
  C   C761      1.0  0.36163856529013566  0.8710567988521498  0.9537182844667451  1.0000
  C   C762      1.0  0.3638309918789961  0.9077830914410814  0.9785017705318059  1.0000
  H   H561      1.0  0.34804032568667653  0.8393702557991759  0.9599401067227571  1.0000
  H   H562      1.0  0.3875135542905293  0.8594964748102146  0.9494517710096092  1.0000
  H   H563      1.0  0.37861125497593395  0.8929117156900285  0.9956758641748052  1.0000
  H   H564      1.0  0.3781184849207649  0.9385358522027549  0.9713118268011609  1.0000
  C   C763      1.0  0.17696106524715913  0.09727247278226947  0.879573313761802  1.0000
  C   C764      1.0  0.16641421151298078  0.10511428666978749  0.8485870712903392  1.0000
  H   H565      1.0  0.18010823202778697  0.13160039867859258  0.8896337270725956  1.0000
  H   H566      1.0  0.1568942173398896  0.08109379535284203  0.8912585611449011  1.0000
  H   H567      1.0  0.18737705130741736  0.12105739927272051  0.836961139883804  1.0000
  H   H568      1.0  0.14625731679757553  0.1314257918932326  0.8467525128723253  1.0000
  C   C765      1.0  0.43708001417831144  0.9681634021803678  0.7245404168732349  1.0000
  C   C766      1.0  0.4421919604532442  0.9300213829877343  0.7017376607398632  1.0000
  H   H569      1.0  0.4491034885057565  0.9567262897010236  0.7443900847448155  1.0000
  H   H570      1.0  0.4492012106606908  1.1447491353289152e-05  0.718784648718797  1.0000
  H   H571      1.0  0.4343235892253839  0.9441014956272737  0.6810448586299809  1.0000
  H   H572      1.0  0.4254175873819776  0.8997164833197221  0.7055571859450351  1.0000
  C   C767      1.0  0.391501107199751  0.1533599545570207  0.919649729641691  1.0000
  C   C768      1.0  0.4278638284528159  0.16260816588161628  0.9133325781376299  1.0000
  H   H573      1.0  0.3877648043870605  0.15759944614130986  0.9428804081774168  1.0000
  H   H574      1.0  0.37549630674551276  0.18045620521797898  0.9097799748269958  1.0000
  H   H575      1.0  0.43596069087829437  0.19660863733569434  0.9235539919562399  1.0000
  H   H576      1.0  0.4289237441048108  0.16684733869374244  0.8898964121116645  1.0000
  C   C769      1.0  0.2937179328416449  0.1911398756274467  0.6102321747512914  1.0000
  C   C770      1.0  0.27568176748591117  0.2325849849038104  0.6248175497028209  1.0000
  H   H577      1.0  0.2734829033523748  0.17188432887326904  0.5990765343017991  1.0000
  H   H578      1.0  0.3030800459348189  0.16496551946172172  0.6254933281501031  1.0000
  H   H579      1.0  0.25007122275195426  0.2202619385217603  0.6305457782967114  1.0000
  H   H580      1.0  0.2712649242209381  0.2604039304673018  0.6088170650246942  1.0000
  C   C771      1.0  0.1968573565872417  0.188100772388859  0.7469216058874556  1.0000
  C   C772      1.0  0.20307737704614984  0.15099883401784406  0.7232926629376574  1.0000
  H   H581      1.0  0.19457986386021087  0.1727157229452904  0.768324081288371  1.0000
  H   H582      1.0  0.17230125908196492  0.20608171815374698  0.7438265829674578  1.0000
  H   H583      1.0  0.20952456394356767  0.1695560160884346  0.7038221936305393  1.0000
  H   H584      1.0  0.1791519358110727  0.13380161368705468  0.718884214822315  1.0000
  C   C773      1.0  0.392221167917703  0.39549059310951246  0.13370668488609108  1.0000
  C   C774      1.0  0.4192615220082697  0.3616002180107385  0.1225199035489027  1.0000
  H   H585      1.0  0.3896418170707093  0.4241875361929151  0.11860674383786925  1.0000
  H   H586      1.0  0.4017085015140132  0.4125742953767529  0.1531845686902796  1.0000
  H   H587      1.0  0.41981861190039854  0.3298172370216929  0.13517390793495518  1.0000
  H   H588      1.0  0.44343681571849697  0.3780781886205039  0.12693110562029994  1.0000
  C   C775      1.0  0.4875819789926193  0.16168408552066688  0.0570530720580396  1.0000
  C   C776      1.0  0.5020357032513206  0.17056342710161773  0.02691843640213376  1.0000
  H   H589      1.0  0.46642655755844753  0.1845247810065926  0.06366214290390479  1.0000
  H   H590      1.0  0.5064650276128385  0.1691695645115542  0.07365222441391538  1.0000
  H   H591      1.0  0.50099957573821  0.1389499739044152  0.012400851138105962  1.0000
  H   H592      1.0  0.5288963285820223  0.17997298379845375  0.028683086704911487  1.0000
  C   C777      1.0  0.2763772869305688  0.20368880882674364  0.8293856423054934  1.0000
  C   C778      1.0  0.29517213663970504  0.15752074623967813  0.8299766836433984  1.0000
  H   H593      1.0  0.25008033290167353  0.19653303981011783  0.8224456730475106  1.0000
  H   H594      1.0  0.2879352809293203  0.22695311135065735  0.8136626716605765  1.0000
  H   H595      1.0  0.28518397210370094  0.13333754879874163  0.8134169340433829  1.0000
  H   H596      1.0  0.2909405378432076  0.14073432387586182  0.8502034316517069  1.0000
  C   C779      1.0  0.38730175068601674  0.5611624935461735  0.15775994891109493  1.0000
  C   C780      1.0  0.3818288498930625  0.5372585287194287  0.1288461642922219  1.0000
  H   H597      1.0  0.3685951133336299  0.546736535763059  0.17253132181770714  1.0000
  H   H598      1.0  0.38176666200783255  0.599356309303443  0.156903892263613  1.0000
  H   H599      1.0  0.378377085789995  0.4999850682344509  0.13228161854914205  1.0000
  H   H600      1.0  0.3566277414502026  0.5470403477710236  0.12015828031056353  1.0000
  C   C781      1.0  0.07460392515163666  0.7373502020768877  0.07968105790332101  1.0000
  C   C782      1.0  0.036465860540114976  0.7381422997873799  0.08045195375587898  1.0000
  H   H601      1.0  0.08135976360336156  0.7314402245089088  0.0574778168187922  1.0000
  H   H602      1.0  0.08312889843270523  0.7055415030275032  0.08989802302368873  1.0000
  H   H603      1.0  0.028137120342901733  0.7667686916942558  0.06722427913934369  1.0000
  H   H604      1.0  0.028038206686481253  0.7486271110605531  0.10218130255621649  1.0000
  C   C783      1.0  0.021911629950385196  0.31942384932577517  0.9026557023561179  1.0000
  C   C784      1.0  0.9945262456739229  0.2826788546942973  0.9080809957839855  1.0000
  H   H605      1.0  0.014230857058498358  0.34489098570495147  0.886811981330339  1.0000
  H   H606      1.0  0.5357656724215267  0.3437146036942838  0.8787556006563132  1.0000
  H   H607      1.0  0.005925931924730676  0.25277793622509437  0.9188701482354219  1.0000
  H   H608      1.0  0.9754183911076055  0.2958562142665944  0.9230900562824004  1.0000
  C   C785      1.0  0.43318170182048216  0.4831751231991654  0.9244564421711058  1.0000
  C   C786      1.0  0.42896577603355235  0.5347305084237229  0.9339469984213383  1.0000
  H   H609      1.0  0.4590741126800075  0.47871785013408913  0.9176372232939853  1.0000
  H   H610      1.0  0.41730117811635037  0.47808908963124536  0.9055092245143911  1.0000
  H   H611      1.0  0.4020700299011822  0.5433942388567016  0.9364467431479622  1.0000
  H   H612      1.0  0.43742025658636424  0.5584336353116596  0.9171097347881131  1.0000
  C   C787      1.0  0.17718822214748192  0.31697194586836014  0.052336816392884886  1.0000
  C   C788      1.0  0.18496620808296485  0.2755997710182541  0.03130082899002533  1.0000
  H   H613      1.0  0.20076177749391821  0.336355245350531  0.056288743331458356  1.0000
  H   H614      1.0  0.1696036442691225  0.30357469582932073  0.07327027189339819  1.0000
  H   H615      1.0  0.1995370219904836  0.2493608239293077  0.04390886349424073  1.0000
  H   H616      1.0  0.1615315528364224  0.2563694691443664  0.02583168297437277  1.0000
  C   C789      1.0  0.20289654374485958  0.31834616817565137  0.5962463148486047  1.0000
  C   C790      1.0  0.2190086546571075  0.31966644990292176  0.5663637732267782  1.0000
  H   H617      1.0  0.21849155099273398  0.29728291411314384  0.6101156612258979  1.0000
  H   H618      1.0  0.17913043492338437  0.2992437555405  0.5930517258250889  1.0000
  H   H619      1.0  0.2189467221444201  0.28378231445026525  0.556627479359352  1.0000
  H   H620      1.0  0.24569685897737606  0.3295388894386816  0.5679610677385362  1.0000
  C   C791      1.0  0.10852634144533342  0.6822757415476868  0.6364773759531068  1.0000
  C   C792      1.0  0.10108718435292484  0.6424413219493575  0.6570981515200187  1.0000
  H   H621      1.0  0.09251625404131172  0.6773696853732899  0.6183097397026613  1.0000
  H   H622      1.0  0.13414802398978287  0.680339191908659  0.6285142060993959  1.0000
  H   H623      1.0  0.07411967604481487  0.6342069661004961  0.6554987385805263  1.0000
  H   H624      1.0  0.10501931636062402  0.6557381630445968  0.6788988913350064  1.0000
  C   C793      1.0  0.08809001181542635  0.4842828652648092  0.8741204807733871  1.0000
  C   C794      1.0  0.11139543302499971  0.5145213794153904  0.893218106799246  1.0000
  H   H625      1.0  0.06773136034907745  0.5061931870165809  0.8656425329802104  1.0000
  H   H626      1.0  0.07463539506860008  0.4593305221033361  0.8876148654416868  1.0000
  H   H627      1.0  0.10531705434833774  0.5516089537613651  0.890334926652691  1.0000
  H   H628      1.0  0.1381830398261646  0.5115811492983042  0.8865365857248634  1.0000
  C   C795      1.0  0.2959171666057171  0.42478833559854834  0.831726504952035  1.0000
  C   C796      1.0  0.2967233374745705  0.45715036424583616  0.8584758919546441  1.0000
  H   H629      1.0  0.31048673347038264  0.39285794693069864  0.8346690010751541  1.0000
  H   H630      1.0  0.30954315730373083  0.4421563194831011  0.8143596343852029  1.0000
  H   H631      1.0  0.3215179978770381  0.4734010532614519  0.860827346739858  1.0000
  H   H632      1.0  0.280252071836546  0.4875525987260668  0.8565460042885812  1.0000
  C   C797      1.0  0.09865412196458677  0.19637504419813445  0.7689744386028401  1.0000
  C   C798      1.0  0.06794902082776917  0.18535323479261273  0.7498069044617451  1.0000
  H   H633      1.0  0.119799324896901  0.17595802269360283  0.7599562917373847  1.0000
  H   H634      1.0  0.09382512912923505  0.1831787349055555  0.7903980982810997  1.0000
  H   H635      1.0  0.06918012920870485  0.14776809998032076  0.7433562920104151  1.0000
  H   H636      1.0  0.07076660285215258  0.20174728618461105  0.7291988394612398  1.0000
  C   C799      1.0  0.31849804657195174  0.5118693074275908  0.7532069809755003  1.0000
  C   C800      1.0  0.31437276228972605  0.540600391278441  0.726158895662337  1.0000
  H   H637      1.0  0.2988173227267543  0.5239213391505823  0.7683367918547775  1.0000
  H   H638      1.0  0.3418441531269419  0.5223032361530769  0.763902922606622  1.0000
  H   H639      1.0  0.336193507126272  0.5325091355986299  0.7121243119217585  1.0000
  H   H640      1.0  0.31633392070871785  0.5787406711974604  0.7317515448812243  1.0000
  C   C801      1.0  0.6010379476620364  0.23229241485307756  0.7916310232225363  1.0000
  C   C802      1.0  0.6256164360902016  0.24424751606680345  0.8111014925296544  1.0000
  C   C803      1.0  0.6393757025006379  0.2877529518437609  0.8114234935452872  1.0000
  C   C804      1.0  0.6299140708550391  0.32015100241004246  0.7915017991307362  1.0000
  C   C805      1.0  0.6058595980704289  0.30763047274506633  0.7721139485052608  1.0000
  C   C806      1.0  0.5927886534481637  0.26434643602371016  0.7712326825677392  1.0000
  H   H641      1.0  0.6334529006768981  0.2204569170840503  0.8273032278425516  1.0000
  H   H642      1.0  0.6570615717118942  0.2968199883307207  0.8281484805085879  1.0000
  H   H643      1.0  0.5969085271007559  0.33237318060010057  0.7569142295107474  1.0000
  H   H644      1.0  0.5753402516388959  0.25659789884293366  0.7542344184266974  1.0000
  C   C807      1.0  0.7057027620893126  0.36159215551161533  0.8051021051857572  1.0000
  C   C808      1.0  0.6769984966353472  0.38908808084152025  0.8047462093263735  1.0000
  C   C809      1.0  0.6805340704632317  0.4358782819760526  0.8124043255863269  1.0000
  C   C810      1.0  0.7101136157625646  0.45519467231165883  0.8196218088775196  1.0000
  C   C811      1.0  0.7380535702336464  0.4280619057042478  0.8202721661919885  1.0000
  C   C812      1.0  0.7358976162353283  0.38043920011432575  0.8145058058988784  1.0000
  C   C813      1.0  0.6413591623435208  0.3735632956140201  0.7928745403026449  1.0000
  C   C814      1.0  0.6145807418528108  0.39362825350205005  0.8151180315141278  1.0000
  C   C815      1.0  0.5900272054478344  0.4247033363963793  0.8077543767092598  1.0000
  C   C816      1.0  0.5768185083518613  0.4566087799342201  0.8271401089070007  1.0000
  C   C817      1.0  0.5858961904570751  0.4548076193590833  0.8551181839955773  1.0000
  C   C818      1.0  0.6045614858996526  0.4172216015935973  0.8640981991618132  1.0000
  C   C819      1.0  0.6182106594644123  0.38672567142832454  0.8440790570714786  1.0000
  C   C820      1.0  0.6637738613857864  0.37256156573909316  0.7413586146568504  1.0000
  C   C821      1.0  0.678323453402191  0.3958634420193815  0.7197337043438201  1.0000
  C   C822      1.0  0.6737515484058058  0.4433615409375518  0.7160688243632616  1.0000
  C   C823      1.0  0.6514556368701899  0.4649298525025289  0.734787251824658  1.0000
  C   C824      1.0  0.6371174300543259  0.44191043105391487  0.7567511105751965  1.0000
  C   C825      1.0  0.6446535904157591  0.3954389879565144  0.761943376952277  1.0000
  C   C826      1.0  0.6927494235583792  0.46997435062732396  0.6908658896067842  1.0000
  C   C827      1.0  0.7800196406591704  0.5406753741030229  0.7287454959260724  1.0000
  C   C828      1.0  0.7502617084050355  0.540824561496443  0.7435808453502643  1.0000
  C   C829      1.0  0.7233336680072676  0.5183097662530465  0.7319972824984178  1.0000
  C   C830      1.0  0.724230801868164  0.4966666771404004  0.7050932502711955  1.0000
  C   C831      1.0  0.7534805001363158  0.5032302507811754  0.6899507288255118  1.0000
  C   C832      1.0  0.7813254325719345  0.5240940233033656  0.7015787786597812  1.0000
  C   C833      1.0  0.6705324885152386  0.5110977501604105  0.6766025156708876  1.0000
  C   C834      1.0  0.6359776255852236  0.507724953712434  0.6765220154169793  1.0000
  C   C835      1.0  0.6164698831342693  0.543523189151542  0.6667645372722089  1.0000
  C   C836      1.0  0.6309594615590433  0.5838760478471943  0.658220918219265  1.0000
  C   C837      1.0  0.6648601576077835  0.5886876260930946  0.6600046343716525  1.0000
  C   C838      1.0  0.6845339881533276  0.5516850132303102  0.6664107598405595  1.0000
  C   C839      1.0  0.7325454086337481  0.4035517340171249  0.6688003463249931  1.0000
  C   C840      1.0  0.7391353032108061  0.36851266679290046  0.6493065743127964  1.0000
  C   C841      1.0  0.7188996142537999  0.362066424103009  0.6263767125153592  1.0000
  C   C842      1.0  0.6891956180442068  0.3868869648691237  0.6248260234137586  1.0000
  C   C843      1.0  0.6817278538235724  0.42017359622806494  0.6452201272130867  1.0000
  C   C844      1.0  0.7036259227681867  0.4308325190789486  0.6673153284831598  1.0000
  H   H645      1.0  0.7050516040616883  0.3247519231179386  0.7996217326367947  1.0000
  H   H646      1.0  0.659609331857379  0.4598408640008458  0.8126352342093794  1.0000
  H   H647      1.0  0.7113501557178911  0.4914798260909831  0.8258669338386102  1.0000
  H   H648      1.0  0.7570959094632721  0.35768216575295414  0.8179927379497451  1.0000
  H   H649      1.0  0.5824232079863998  0.4282328428840238  0.7860786241306031  1.0000
  H   H650      1.0  0.5615073317151857  0.48468734046786616  0.8199226256158082  1.0000
  H   H651      1.0  0.6098283279896632  0.4145974678937931  0.8864391380490798  1.0000
  H   H652      1.0  0.6354230517273852  0.3611967608175172  0.8521036613294878  1.0000
  H   H653      1.0  0.6719308741815548  0.3367330934354253  0.7446040459459925  1.0000
  H   H654      1.0  0.6941587437963986  0.37410830445902343  0.7068091767360815  1.0000
  H   H655      1.0  0.6462221886676561  0.5017825514533855  0.7334695897738445  1.0000
  H   H656      1.0  0.6259631257736871  0.46570206637198747  0.7723279097064379  1.0000
  H   H657      1.0  0.7487801206374447  0.55417046653336  0.7653159139054848  1.0000
  H   H658      1.0  0.7013239102879447  0.5194049388313573  0.7448540204186549  1.0000
  H   H659      1.0  0.755009968907315  0.48939901570444405  0.6686923065105373  1.0000
  H   H660      1.0  0.8047641623730301  0.5261696962262068  0.6898193863059774  1.0000
  H   H661      1.0  0.6245778523135365  0.4758844554677937  0.6831632863644079  1.0000
  H   H662      1.0  0.5892342323472365  0.5400039758484358  0.6669700247624483  1.0000
  H   H663      1.0  0.6762577705601359  0.6218208838134893  0.6557974368910806  1.0000
  H   H664      1.0  0.7114061869187025  0.5568943539999176  0.6657413366764806  1.0000
  H   H665      1.0  0.7491144968308766  0.40802224940642035  0.6867391923801205  1.0000
  H   H666      1.0  0.7607109795239251  0.34597400293725517  0.6526875849769418  1.0000
  H   H667      1.0  0.6722644834301177  0.38197484917629515  0.6071138491262149  1.0000
  H   H668      1.0  0.6582281282323684  0.4375814076044835  0.643385568795073  1.0000
  C   C845      1.0  0.6512963951981026  0.32013525812015126  0.028439467515452233  1.0000
  C   C846      1.0  0.6663244566898925  0.3624229688101468  0.024206848902067257  1.0000
  C   C847      1.0  0.6461602980456312  0.3982534761880148  0.015014990962388897  1.0000
  C   C848      1.0  0.6116688675743829  0.39374760935247854  0.011538651050194026  1.0000
  C   C849      1.0  0.5975685498749118  0.353912065201067  0.02141687957582694  1.0000
  C   C850      1.0  0.6168052800312969  0.3175275994116734  0.02915634459446493  1.0000
  H   H669      1.0  0.6933820223153915  0.3652515143415111  0.02526394434154633  1.0000
  H   H670      1.0  0.65918368884944  0.4295096348570291  0.009108814438806512  1.0000
  H   H671      1.0  0.5706811086476715  0.34925170091852065  0.021448655991843424  1.0000
  H   H672      1.0  0.604583470530051  0.2846781993178309  0.033680882549654005  1.0000
  C   C851      1.0  0.5740038571133084  0.36226643058644614  0.9579148898086449  1.0000
  C   C852      1.0  0.565692013785866  0.4055707988285949  0.9707334960296624  1.0000
  C   C853      1.0  0.5387070904340043  0.42938629226954766  0.9587198923477271  1.0000
  C   C854      1.0  0.5233935863908409  0.4127862241356232  0.9342181571713452  1.0000
  C   C855      1.0  0.5331385891355097  0.3712296725500533  0.9220181318487802  1.0000
  C   C856      1.0  0.5566066102470106  0.34461915950019717  0.9348981724740962  1.0000
  C   C857      1.0  0.5886339867226021  0.4309765388718617  0.9953178498876871  1.0000
  C   C858      1.0  0.6071433817891476  0.4679670882847155  0.9751970232660999  1.0000
  C   C859      1.0  0.5920840214544506  0.5103241094625107  0.9691171356682946  1.0000
  C   C860      1.0  0.5944041067122627  0.5302967650150993  0.943119790511407  1.0000
  C   C861      1.0  0.6123148715332146  0.5058420324026538  0.9225562124933249  1.0000
  C   C862      1.0  0.6329547176391235  0.46946150918485563  0.9293076416829434  1.0000
  C   C863      1.0  0.6309316834024993  0.45144481099936257  0.9558875544667984  1.0000
  C   C864      1.0  0.5339915971349326  0.4438679536814549  0.026179105122818846  1.0000
  C   C865      1.0  0.5112913402059538  0.47574321921879104  0.03684983859758327  1.0000
  C   C866      1.0  0.520558652317606  0.5204820587101864  0.045423539324356006  1.0000
  C   C867      1.0  0.5547800811247359  0.5283495851576506  0.045538358107561946  1.0000
  C   C868      1.0  0.5778619718420323  0.49605183243714873  0.034250315924667964  1.0000
  C   C869      1.0  0.5668198919009795  0.4554236452858273  0.020961417612925137  1.0000
  C   C870      1.0  0.4922878980856297  0.5618984260640023  0.04725534378631498  1.0000
  C   C871      1.0  0.9261490144221267  0.5440066439345912  0.9651154256779622  1.0000
  C   C872      1.0  0.9068672995627958  0.5471878077597548  0.9890600143601899  1.0000
  C   C873      1.0  0.9222543282604811  0.5509703142051513  0.014735358501444473  1.0000
  C   C874      1.0  0.9567374017466979  0.5541630118394187  0.017599472798389693  1.0000
  C   C875      1.0  0.4940235229264848  0.5507776613806555  0.9921508004247187  1.0000
  C   C876      1.0  0.9603248582599833  0.5490598589396347  0.9665665486760446  1.0000
  C   C877      1.0  0.5093929205341271  0.6110029409575665  0.055275287503308505  1.0000
  C   C878      1.0  0.5148128614493586  0.6262176608919285  0.08333894707235602  1.0000
  C   C879      1.0  0.53071362554181  0.6675751101473165  0.089542127164305  1.0000
  C   C880      1.0  0.5444306652272384  0.6926431201343127  0.0681328727946394  1.0000
  C   C881      1.0  0.5390557206744032  0.6784444853624109  0.04013848581250766  1.0000
  C   C882      1.0  0.5221785624347647  0.6383261450146158  0.034156045890485966  1.0000
  C   C883      1.0  0.9250651681527071  0.5790292953319122  0.07936265821483665  1.0000
  C   C884      1.0  0.9022745416628579  0.5719731136925352  0.10101510808841445  1.0000
  C   C885      1.0  0.9041794998956105  0.5320957874642768  0.11644531202043344  1.0000
  C   C886      1.0  0.9295624873642311  0.5010155143325423  0.11103844891385554  1.0000
  C   C887      1.0  0.9518622347825642  0.5079569816016999  0.08989823486646216  1.0000
  C   C888      1.0  0.9502174634693338  0.54671562357002  0.07305398042171321  1.0000
  H   H673      1.0  0.594685876156086  0.3414184651560192  0.9652319392033556  1.0000
  H   H674      1.0  0.5314706146533112  0.4630164422641747  0.9675219595842711  1.0000
  H   H675      1.0  0.9987107509597185  0.3993400972081234  0.9249415621222896  1.0000
  H   H676      1.0  0.5631189532953319  0.3103666755639544  0.926204145052008  1.0000
  H   H677      1.0  0.5739909738089017  0.5251116807314915  0.9838105504342799  1.0000
  H   H678      1.0  0.5787194157143754  0.5600014808333252  0.9385397497495761  1.0000
  H   H679      1.0  0.6473764114580907  0.45226130557478067  0.9130698930985609  1.0000
  H   H680      1.0  0.6435686478879227  0.4189878102463052  0.9589529193985141  1.0000
  H   H681      1.0  0.5242770064645073  0.4122969211962505  0.016550851069848216  1.0000
  H   H682      1.0  0.4853386665859163  0.4667592922937786  0.03602365178115676  1.0000
  H   H683      1.0  0.5648345978369133  0.5605230193601106  0.05298992766340872  1.0000
  H   H684      1.0  0.6035268319322613  0.5059786574024633  0.030850239410912715  1.0000
  H   H685      1.0  0.8800575954202786  0.5429412297611304  0.9883927096238454  1.0000
  H   H686      1.0  0.9056190301879166  0.5478131949542829  0.03247486164044474  1.0000
  H   H687      1.0  0.5207732189214941  0.547817013735659  0.9940658590966407  1.0000
  H   H688      1.0  0.9757552622366966  0.5471477371942374  0.947689239134566  1.0000
  H   H689      1.0  0.506002632566806  0.6064400159979874  0.10089732350638031  1.0000
  H   H690      1.0  0.5327484632779423  0.6800896398898786  0.11135875518730089  1.0000
  H   H691      1.0  0.00781579157700607  0.714249327227949  0.03008252119995639  1.0000
  H   H692      1.0  0.9819896972773742  0.6398658909050849  0.01556366374560536  1.0000
  H   H693      1.0  0.9230099263344029  0.6102514596454336  0.06736070588544078  1.0000
  H   H694      1.0  0.8839080233057043  0.5988573356870633  0.10652005439909631  1.0000
  H   H695      1.0  0.9334657515927712  0.4719385093323958  0.12481373709974021  1.0000
  H   H696      1.0  0.47659210995959733  0.4860441010746567  0.08398697411631723  1.0000
  C   C889      1.0  0.9058886622969081  0.4501922860501797  0.9345740530307288  1.0000
  C   C890      1.0  0.9282503023949297  0.41421755209535344  0.929871143460301  1.0000
  C   C891      1.0  0.9275399364768003  0.37495308190093224  0.9451916128356768  1.0000
  C   C892      1.0  0.904764866826442  0.37163143700320556  0.967189366429966  1.0000
  C   C893      1.0  0.881559666202503  0.4073884963075802  0.9710449049066231  1.0000
  C   C894      1.0  0.8805841321091838  0.44489727473849167  0.9536822711952598  1.0000
  H   H697      1.0  0.9463552747334597  0.4168489121722287  0.9132118277567675  1.0000
  H   H698      1.0  0.945700660044477  0.34752449271222546  0.9408573096910391  1.0000
  H   H699      1.0  0.8633477555121433  0.40645481612976  0.9879075896726616  1.0000
  H   H700      1.0  0.8628011448215612  0.47256187494612945  0.9576755074746546  1.0000
  C   C895      1.0  0.9145974608835682  0.37694816988482854  0.031188340477327256  1.0000
  C   C896      1.0  0.8986795234542023  0.33842533828297294  0.019662821411721598  1.0000
  C   C897      1.0  0.8824262156128061  0.3094018728628821  0.0387062168212616  1.0000
  C   C898      1.0  0.8830447383341803  0.3184641129434878  0.06717788557195975  1.0000
  C   C899      1.0  0.8993546550953014  0.35748666253548944  0.07733341628802907  1.0000
  C   C900      1.0  0.9146731030878835  0.3873414810842429  0.0593003001987197  1.0000
  C   C901      1.0  0.9011629373062171  0.326498348024894  0.9862552160398085  1.0000
  C   C902      1.0  0.9326446538123081  0.2920395452602547  0.9870517448679531  1.0000
  C   C903      1.0  0.9270671086722081  0.24517212525854606  0.990375557983269  1.0000
  C   C904      1.0  0.9515327459974978  0.2155315092232773  0.9988937559033997  1.0000
  C   C905      1.0  0.9835943921627147  0.23167934593804404  0.0027768339406044618  1.0000
  C   C906      1.0  0.9905864812547241  0.2784950838717488  0.9988090187940227  1.0000
  C   C907      1.0  0.9653583130935333  0.3086765125870877  0.9907632302586691  1.0000
  C   C908      1.0  0.836724142192988  0.3193392330374536  0.9818213467916529  1.0000
  C   C909      1.0  0.8085613477157052  0.3141347139362136  0.9660072837541559  1.0000
  C   C910      1.0  0.8092918205714876  0.29305028990818444  0.9392430677574057  1.0000
  C   C911      1.0  0.840082236939364  0.27556733065546013  0.9299516437142092  1.0000
  C   C912      1.0  0.8690581604119301  0.2818898163368421  0.9455856403942802  1.0000
  C   C913      1.0  0.8676948620659207  0.3052912912031239  0.9720193816644594  1.0000
  C   C914      1.0  0.7763840857835677  0.29448411188708207  0.9197683615948188  1.0000
  C   C915      1.0  0.6995713845899054  0.25049583600446973  0.9817641492428235  1.0000
  C   C916      1.0  0.6979524971302782  0.292981012700568  0.9695514133538521  1.0000
  C   C917      1.0  0.7222634934401403  0.306461906565925  0.9510363549549606  1.0000
  C   C918      1.0  0.7475476014642772  0.27690978867172333  0.9412767583824557  1.0000
  C   C919      1.0  0.7475161023896362  0.23246723155038268  0.9529281109218039  1.0000
  C   C920      1.0  0.7244807167521388  0.21972699743943466  0.9734599125238698  1.0000
  C   C921      1.0  0.7769042709358831  0.26481726532251443  0.8903561109300352  1.0000
  C   C922      1.0  0.799874150847268  0.27621547527317863  0.8690235436443559  1.0000
  C   C923      1.0  0.801333948055279  0.25143154775690735  0.8436871479406095  1.0000
  C   C924      1.0  0.7792580979950396  0.21575491501732486  0.8377364844346044  1.0000
  C   C925      1.0  0.7553254349158642  0.2065290030409597  0.8573128751284437  1.0000
  C   C926      1.0  0.7530835066823036  0.23098167943517928  0.8826217312716425  1.0000
  C   C927      1.0  0.743428349123624  0.36033844804445253  0.8972706590552048  1.0000
  C   C928      1.0  0.7402918908110115  0.40253418612912917  0.8849731860568563  1.0000
  C   C929      1.0  0.766988974659216  0.4318401564548477  0.8829712718478229  1.0000
  C   C930      1.0  0.7968509723133419  0.41939154395994155  0.8950611389281974  1.0000
  C   C931      1.0  0.7997332562712814  0.37868675686068853  0.9091338543679957  1.0000
  C   C932      1.0  0.7727595087007949  0.34821136682171017  0.9107057277469404  1.0000
  H   H701      1.0  0.9280448659125324  0.4004926328412376  0.01795325023003902  1.0000
  H   H702      1.0  0.8696858728438933  0.2774669584400223  0.031948432348439644  1.0000
  H   H703      1.0  0.8691822465547596  0.29745071228910014  0.08158022836723476  1.0000
  H   H704      1.0  0.9268060335440506  0.4186874613353936  0.06662434040495398  1.0000
  H   H705      1.0  0.9020411052491502  0.2309629599484897  0.9888312241648717  1.0000
  H   H706      1.0  0.9459759569236835  0.1797718621777501  0.002435767075361639  1.0000
  H   H707      1.0  0.01592730815377652  0.29140319206465676  0.0024103459425486307  1.0000
  H   H708      1.0  0.9700953352769645  0.34542916380221905  0.9883651700632978  1.0000
  H   H709      1.0  0.8343618811298527  0.3395417765359245  0.0013892637745547276  1.0000
  H   H710      1.0  0.7860425781418753  0.33066689994643966  0.974120861977011  1.0000
  H   H711      1.0  0.841945324324825  0.2572633631754852  0.9100066465945795  1.0000
  H   H712      1.0  0.892345349555383  0.26875814463603126  0.9368513628452377  1.0000
  H   H713      1.0  0.6784777200377884  0.3177441452695352  0.9751398257172704  1.0000
  H   H714      1.0  0.7213583471070545  0.34251183642464217  0.945952128392336  1.0000
  H   H715      1.0  0.766883922806858  0.20842950879255784  0.945952128392336  1.0000
  H   H716      1.0  0.7246318070718373  0.1845695380480559  0.9809188965767871  1.0000
  H   H717      1.0  0.8187420189176793  0.3029704403585074  0.871862236808488  1.0000
  H   H718      1.0  0.8199945138762207  0.2613683547794418  0.8284450603914078  1.0000
  H   H719      1.0  0.7365370153640696  0.18126439651750367  0.8527222422279406  1.0000
  H   H720      1.0  0.7329881308185496  0.22142553603687468  0.8967050388501128  1.0000
  H   H721      1.0  0.7227917286500956  0.3355187091920547  0.8947920986059252  1.0000
  H   H722      1.0  0.7168335973884842  0.40867355504133007  0.8744234159394102  1.0000
  H   H723      1.0  0.819177109360126  0.43995111980654306  0.8925423283519638  1.0000
  H   H724      1.0  0.8240620395391106  0.3692799161126458  0.9168788261650606  1.0000
  C   C933      1.0  0.8288147989768739  0.4760747267456938  0.7613671646085128  1.0000
  C   C934      1.0  0.8026935995238258  0.44641824823976584  0.7665191808586392  1.0000
  C   C935      1.0  0.8057210668443866  0.3996653704443827  0.7608057812588898  1.0000
  C   C936      1.0  0.8328084670868477  0.3829701855951202  0.7449324022448287  1.0000
  C   C937      1.0  0.8587505111254082  0.41395852380554204  0.7388186198032725  1.0000
  C   C938      1.0  0.8566985480254401  0.4594142419510827  0.7479003195007607  1.0000
  H   H725      1.0  0.7797666795886282  0.46056991255810237  0.7752661689740881  1.0000
  H   H726      1.0  0.7872344049134254  0.37640163933027104  0.7688197933782269  1.0000
  H   H727      1.0  0.879712062039408  0.40266069487688844  0.7255593806134942  1.0000
  H   H728      1.0  0.8770138151222485  0.4819699380057934  0.7423648678307032  1.0000
  C   C939      1.0  0.82483506809062  0.3669908122323323  0.6833793659933194  1.0000
  C   C940      1.0  0.8378254548771512  0.33064541893745414  0.6989646388354984  1.0000
  C   C941      1.0  0.8507505608899184  0.29185249794021023  0.6839174466378638  1.0000
  C   C942      1.0  0.8520096620134184  0.2908891547010713  0.6549987896352016  1.0000
  C   C943      1.0  0.8380264611333651  0.32653320329164287  0.6402418220371835  1.0000
  C   C944      1.0  0.8252615936210911  0.3647555672124554  0.6545221433949555  1.0000
  C   C945      1.0  0.8341564524822901  0.33090842757543154  0.7324294417562408  1.0000
  C   C946      1.0  0.8022550778131571  0.29812481847173433  0.735600728074678  1.0000
  C   C947      1.0  0.8066150815544957  0.2505014513041564  0.7390113967271054  1.0000
  C   C948      1.0  0.7808938937993449  0.22062998605231832  0.7341813814926119  1.0000
  C   C949      1.0  0.749776140229582  0.23634790522575405  0.7264046332795306  1.0000
  C   C950      1.0  0.7446220071410324  0.28334350219309384  0.7230829385919493  1.0000
  C   C951      1.0  0.770474974301525  0.3135257419330205  0.7279489670979278  1.0000
  C   C952      1.0  0.8946207134978721  0.3001421724857788  0.7397083594517319  1.0000
  C   C953      1.0  0.9179890001227117  0.2765255157904775  0.7556029227431372  1.0000
  C   C954      1.0  0.911149166986319  0.2645449938392938  0.783432707890304  1.0000
  C   C955      1.0  0.8822386422157318  0.282711629394388  0.7954632589941146  1.0000
  C   C956      1.0  0.8591785308207897  0.30509125396689357  0.7795369192866928  1.0000
  C   C957      1.0  0.8639230554658334  0.31094246186659835  0.7508894210340372  1.0000
  C   C958      1.0  0.9336053744734784  0.22566263704552034  0.79950945596687  1.0000
  C   C959      1.0  0.5225744086811147  0.1805118768402855  0.7737578484271762  1.0000
  C   C960      1.0  0.5100619586548727  0.22364862043777003  0.7678262507707807  1.0000
  C   C961      1.0  0.9911707115545922  0.2476041113411414  0.7796830908003684  1.0000
  C   C962      1.0  0.9674444231478678  0.2127553581437221  0.7826594817672382  1.0000
  C   C963      1.0  0.9764178732391899  0.16865162998678293  0.7732261230658349  1.0000
  C   C964      1.0  0.008848660068345948  0.15999803657194722  0.7637122641105235  1.0000
  C   C965      1.0  0.9059736956997961  0.18645478052085226  0.8030387565724254  1.0000
  C   C966      1.0  0.8894728872081713  0.18036301247503003  0.8286357188875062  1.0000
  C   C967      1.0  0.8570427221937589  0.16545021815720823  0.8294364845711195  1.0000
  C   C968      1.0  0.8405587073396225  0.15361781105392106  0.8055236723049082  1.0000
  C   C969      1.0  0.8572908802064368  0.15267278744301988  0.7802190530171783  1.0000
  C   C970      1.0  0.8901258277516751  0.16782467098651566  0.7793526160737977  1.0000
  C   C971      1.0  0.9653990425324245  0.2096907220004387  0.8460449580090267  1.0000
  C   C972      1.0  0.9809204676314103  0.22288888127964357  0.8707161674041629  1.0000
  C   C973      1.0  0.9775437389621207  0.26721263750958696  0.8807914097090974  1.0000
  C   C974      1.0  0.9590630495383269  0.298460538970433  0.866191205763427  1.0000
  C   C975      1.0  0.9456653981627071  0.2859651613416618  0.8405179800499069  1.0000
  C   C976      1.0  0.9476384274862243  0.24109812990786122  0.8299406703719131  1.0000
  H   H729      1.0  0.8127426157308691  0.39767378145478915  0.6922386307786929  1.0000
  H   H730      1.0  0.8613731301067283  0.2628087295714115  0.6944799273217166  1.0000
  H   H731      1.0  0.8635525176043596  0.2612767922984324  0.6441905713341552  1.0000
  H   H732      1.0  0.8155196734277772  0.3927003154783022  0.6424619343028629  1.0000
  H   H733      1.0  0.8308800629491674  0.23544409706283678  0.7435935559166709  1.0000
  H   H734      1.0  0.7849606609896347  0.18386349342247063  0.7374543523423015  1.0000
  H   H735      1.0  0.7209626908433007  0.2965338978600417  0.7150053736405793  1.0000
  H   H736      1.0  0.7654358937708332  0.3497910458320684  0.7249302075763694  1.0000
  H   H737      1.0  0.9000253542590244  0.30927762990268354  0.7184880688359772  1.0000
  H   H738      1.0  0.9412177867747085  0.26647762865643243  0.7460000898229798  1.0000
  H   H739      1.0  0.8769567105209226  0.2770840451060745  0.8175944735356729  1.0000
  H   H740      1.0  0.8362530738188718  0.3166363447707922  0.7896121615916274  1.0000
  H   H741      1.0  0.5250960289512852  0.2505160444896251  0.7595029482022173  1.0000
  H   H742      1.0  0.9851346434229797  0.2822056537764414  0.78729248322243  1.0000
  H   H743      1.0  0.9590891973819833  0.14019944706791831  0.7753021822455733  1.0000
  H   H744      1.0  0.015234372398650331  0.12432634592348261  0.7579522591006168  1.0000
  H   H745      1.0  0.898979401322291  0.19416715884518557  0.8487819666419064  1.0000
  H   H746      1.0  0.84359462815419  0.16415933902801047  0.8491929416223852  1.0000
  H   H747      1.0  0.8453144052308468  0.1432314012551979  0.7604477669717716  1.0000
  H   H748      1.0  0.9014070919138514  0.17097917515099334  0.75877209063384  1.0000
  H   H749      1.0  0.9679705259671024  0.1740876944884119  0.8383804864658702  1.0000
  H   H750      1.0  0.9950200811096717  0.1972104547662403  0.8824840334689046  1.0000
  H   H751      1.0  0.9558528436172867  0.333788119730122  0.8747475353827774  1.0000
  H   H752      1.0  0.9332451818440287  0.3123858032362974  0.8286526663093815  1.0000
  C   C977      1.0  0.9026239064384405  0.9449413176930153  0.720144679324299  1.0000
  C   C978      1.0  0.8938480467865275  0.9910295166985843  0.7178546589433835  1.0000
  C   C979      1.0  0.86141667106316  0.005945210777278387  0.7218373030841061  1.0000
  C   C980      1.0  0.8367816334287581  0.9751972615406542  0.7298555520589122  1.0000
  C   C981      1.0  0.8465650990312498  0.9291106406669264  0.7339250517367462  1.0000
  C   C982      1.0  0.8785119259133473  0.9142617643576023  0.7279193091096459  1.0000
  H   H753      1.0  0.9130832243250554  0.014797660565279536  0.711764179206906  1.0000
  H   H754      1.0  0.8561057751794882  0.042834405076912496  0.7204094827911023  1.0000
  H   H755      1.0  0.8288758190952625  0.9030516983644477  0.7402909270786994  1.0000
  H   H756      1.0  0.8847136002019677  0.8777911695487398  0.7300949343929023  1.0000
  C   C983      1.0  0.7782306712642052  0.9353952943393324  0.6990514943726099  1.0000
  C   C984      1.0  0.7723782337094185  0.9552681999748645  0.7254004985334124  1.0000
  C   C985      1.0  0.7419731597391173  0.9469446529819223  0.7383822236899806  1.0000
  C   C986      1.0  0.7181402769927809  0.920113938433349  0.724972576131058  1.0000
  C   C987      1.0  0.7253695499811982  0.8997705466037448  0.6986828879468197  1.0000
  C   C988      1.0  0.7558180887098451  0.9069411701382757  0.6867730872238713  1.0000
  C   C989      1.0  0.7990120430036275  0.9900501972309504  0.7384203553892003  1.0000
  C   C990      1.0  0.783131116755949  0.039329815605002594  0.7291437603401447  1.0000
  C   C991      1.0  0.7588590704952083  0.06144873634433949  0.7460466952331373  1.0000
  C   C992      1.0  0.7418847534232009  0.0991831957556666  0.7368717847153342  1.0000
  C   C993      1.0  0.7485718198510176  0.11813014331150849  0.7112006774295484  1.0000
  C   C994      1.0  0.7735429660897488  0.09768314923011706  0.6946790595287528  1.0000
  C   C995      1.0  0.788899055893467  0.05746185026793152  0.7027672166187947  1.0000
  C   C996      1.0  0.8003980487792046  0.9492777993164333  0.7885487108689451  1.0000
  C   C997      1.0  0.8056111147997157  0.9521929581587322  0.8171919722661318  1.0000
  C   C998      1.0  0.8171745588147439  0.9928878461728278  0.8301355657234804  1.0000
  C   C999      1.0  0.825587632633906  0.029135635530423754  0.8127496293070384  1.0000
  C   C1000     1.0  0.8207158686971329  0.0268054738186847  0.784112723193055  1.0000
  C   C1001     1.0  0.8053274030347753  0.9878446791983031  0.7718427897552541  1.0000
  C   C1002     1.0  0.8174139925597234  0.9976279805306593  0.8640452384684526  1.0000
  C   C1003     1.0  0.7144913610057021  0.05211933260378167  0.8776667288008179  1.0000
  C   C1004     1.0  0.7197537976054842  0.004785141240328583  0.8760863817109352  1.0000
  C   C1005     1.0  0.7509790098194524  0.987091589580983  0.8703454425506383  1.0000
  C   C1006     1.0  0.7789029893277274  0.015512363167391907  0.8689006748357591  1.0000
  C   C1007     1.0  0.7722641799006291  0.06377831935864307  0.8694938346013986  1.0000
  C   C1008     1.0  0.7411750933278558  0.08142890832109465  0.8746733904120726  1.0000
  C   C1009     1.0  0.8400896401797988  0.03388819446842328  0.8814121090352847  1.0000
  C   C1010     1.0  0.8662005859065691  0.05571673431256512  0.8686040949529393  1.0000
  C   C1011     1.0  0.8805791286839814  0.09409026195736066  0.8813019507930945  1.0000
  C   C1012     1.0  0.8714134573262661  0.10892515192932911  0.9080894694949231  1.0000
  C   C1013     1.0  0.8481197143153973  0.08408321076176908  0.9223422512921476  1.0000
  C   C1014     1.0  0.8323418595964975  0.04708939701763071  0.9092906180203432  1.0000
  C   C1015     1.0  0.8139982723782704  0.922770789262851  0.8932456463597935  1.0000
  C   C1016     1.0  0.8275037852404551  0.8869592485437744  0.908182680315238  1.0000
  C   C1017     1.0  0.8615630030439647  0.8818784144621835  0.9100108834500483  1.0000
  C   C1018     1.0  0.8813905917043258  0.9052113536123009  0.8914004958031078  1.0000
  C   C1019     1.0  0.8671059186074774  0.9385323477189177  0.874745416955043  1.0000
  C   C1020     1.0  0.8329921188803021  0.950228630206695  0.8766880151875125  1.0000
  H   H757      1.0  0.8010913354059892  0.9395628703400863  0.6874425103879502  1.0000
  H   H758      1.0  0.7373038446150042  0.9622604030939189  0.7593165265615877  1.0000
  H   H759      1.0  0.6940925917072741  0.9154471594224296  0.73509442384615  1.0000
  H   H760      1.0  0.7622654155621402  0.8913106858870281  0.6666077736198612  1.0000
  H   H761      1.0  0.7505465854310833  0.04618743777997558  0.7657035861808849  1.0000
  H   H762      1.0  0.7205451385593837  0.11115702883325612  0.7493768636316565  1.0000
  H   H763      1.0  0.7784693586488902  0.11009750493278733  0.6735625718719849  1.0000
  H   H764      1.0  0.8066652896769195  0.042224194039362395  0.6877115507102224  1.0000
  H   H765      1.0  0.7890541629069149  0.9173605018440705  0.7799034072847486  1.0000
  H   H766      1.0  0.7969457266699419  0.9242234650294003  0.8301101445906673  1.0000
  H   H767      1.0  0.8339572975932928  0.0626467728056944  0.8210771687310708  1.0000
  H   H768      1.0  0.8279988779445024  0.055799518283056036  0.7711479454583621  1.0000
  H   H769      1.0  0.6989030688420647  0.9809773444001815  0.876035539445309  1.0000
  H   H770      1.0  0.752909144346335  0.9506797488026231  0.8658903890251385  1.0000
  H   H771      1.0  0.791814639162003  0.0892315126180848  0.8669178264763354  1.0000
  H   H772      1.0  0.737677240687283  0.11873624855024724  0.8759486839081975  1.0000
  H   H773      1.0  0.874587204235872  0.04517967435620607  0.8478202004504766  1.0000
  H   H774      1.0  0.8974834581385684  0.11366818529567711  0.8689112669744313  1.0000
  H   H775      1.0  0.8414043446472639  0.0947631329269626  0.9437849768200172  1.0000
  H   H776      1.0  0.8127644907047599  0.03051502390236771  0.9212745637139964  1.0000
  H   H777      1.0  0.788216042436235  0.9305677269703295  0.8967601179712079  1.0000
  H   H778      1.0  0.8113068822023876  0.870010213031302  0.9231027668488069  1.0000
  H   H779      1.0  0.9083727593134673  0.9019602756572737  0.8923368408617244  1.0000
  H   H780      1.0  0.8840828219103601  0.9583324180436595  0.8620221399820748  1.0000
  C   C1021     1.0  0.8756759479579629  0.9253964980214174  0.06864743889133171  1.0000
  C   C1022     1.0  0.8881513359139077  0.9651477585583658  0.08209076945123167  1.0000
  C   C1023     1.0  0.9190933611768712  0.982222403830784  0.07510927900965422  1.0000
  C   C1024     1.0  0.9365468614546657  0.9624103002954948  0.05214192104131761  1.0000
  C   C1025     1.0  0.9237568109589189  0.9214911004168684  0.04003870786621615  1.0000
  C   C1026     1.0  0.8941197055271962  0.9027720265151705  0.048366882818568796  1.0000
  H   H781      1.0  0.8746078611687595  0.9816613963632024  0.09918203256981481  1.0000
  H   H782      1.0  0.9294725613746453  0.01146585624227292  0.08700912312225069  1.0000
  H   H783      1.0  0.9376025981197806  0.9041417828827226  0.023236608999699593  1.0000
  H   H784      1.0  0.8847289811955763  0.8705926983048636  0.038900052958961664  1.0000
  C   C1027     1.0  0.011815505390282421  0.9732410031241043  0.08656128749919284  1.0000
  C   C1028     1.0  0.9970755825084977  0.9526919551325533  0.06273914394001497  1.0000
  C   C1029     1.0  0.9985062513332756  0.9042047560409784  0.05998582341358026  1.0000
  C   C1030     1.0  0.007662350384810779  0.8777093947014686  0.0821867342276012  1.0000
  C   C1031     1.0  0.0164315218990978  0.8992739181550667  0.10737526367548446  1.0000
  C   C1032     1.0  0.02274406369354165  0.9463788715709173  0.1084431630964091  1.0000
  C   C1033     1.0  0.972745582392116  0.9792087993011741  0.041933429631887606  1.0000
  C   C1034     1.0  0.9783626083180257  0.03372183905533466  0.04151440462601796  1.0000
  C   C1035     1.0  0.953090012689662  0.06692626095674513  0.04121951948538573  1.0000
  C   C1036     1.0  0.9607906548087717  0.11358141917112004  0.04007959352149059  1.0000
  C   C1037     1.0  0.9939648018221692  0.12736433674381437  0.040257753293955895  1.0000
  C   C1038     1.0  0.019218123438235434  0.09449702422555777  0.040136155541999785  1.0000
  C   C1039     1.0  0.011053501338192051  0.04915071992945241  0.040117089692389946  1.0000
  C   C1040     1.0  0.013412041588960921  0.9587460566886635  0.9999106012159247  1.0000
  C   C1041     1.0  0.02306700674782387  0.9735059072537134  0.9739280850531782  1.0000
  C   C1042     1.0  0.001113569065434028  0.9952778140611861  0.9563705559902477  1.0000
  C   C1043     1.0  0.9672020771642249  0.9920069908708155  0.9632978146818237  1.0000
  C   C1044     1.0  0.957590082105989  0.9791695156696342  0.9896701215477047  1.0000
  C   C1045     1.0  0.9811554763369111  0.967746866599089  0.00945835501498693  1.0000
  C   C1046     1.0  0.014633292394832242  0.0254097109092859  0.930595645745475  1.0000
  C   C1047     1.0  0.6014574418593512  0.07878982465482007  0.9675579728557564  1.0000
  C   C1048     1.0  0.5772267320158163  0.07336865601004064  0.9879266555222714  1.0000
  C   C1049     1.0  0.054183051453130036  0.06855637794411562  0.9653844660002343  1.0000
  C   C1050     1.0  0.04843094736032761  0.05321934381966707  0.9376224705405692  1.0000
  C   C1051     1.0  0.5693797371490312  0.03228622734788522  0.9353133843100438  1.0000
  C   C1052     1.0  0.5964356567202921  0.06045184136929681  0.9406857170445505  1.0000
  C   C1053     1.0  0.9909218108655417  0.06771363207960777  0.9247593773371289  1.0000
  C   C1054     1.0  0.9763297961538159  0.09303055327058841  0.9475091727771396  1.0000
  C   C1055     1.0  0.9538266425759412  0.1274570347604077  0.9433443438512563  1.0000
  C   C1056     1.0  0.9454939538671127  0.13825574347019604  0.9163026138212964  1.0000
  C   C1057     1.0  0.9600634187072884  0.11516655199197905  0.8934002915844067  1.0000
  C   C1058     1.0  0.9832059964089909  0.0811182618151042  0.897599015354041  1.0000
  C   C1059     1.0  0.9820653290898077  0.9725215105366095  0.8959296942993125  1.0000
  C   C1060     1.0  0.977969660079571  0.9322916309067941  0.8803380661739301  1.0000
  C   C1061     1.0  0.004609857212687141  0.902713629560262  0.8778891637129327  1.0000
  C   C1062     1.0  0.035359068730202725  0.9137574436761521  0.889184620392897  1.0000
  C   C1063     1.0  0.04022563509543589  0.955544283532615  0.9030560851979247  1.0000
  C   C1064     1.0  0.013244876859477062  0.9847346291614348  0.90780560017851  1.0000
  H   H785      1.0  0.011847352062053229  0.010812585550324494  0.09037805874830987  1.0000
  H   H786      1.0  0.9887120803058457  0.8859967225887282  0.04159554040824651  1.0000
  H   H787      1.0  0.0037538883850092297  0.8407711921248493  0.08004288536036114  1.0000
  H   H788      1.0  0.029890387206196436  0.9625437084760762  0.12864745577073264  1.0000
  H   H789      1.0  0.9269964067633139  0.057309432739022004  0.04179403708696231  1.0000
  H   H790      1.0  0.9409922444647342  0.13964985921884274  0.03991583905761938  1.0000
  H   H791      1.0  0.04566356506234756  0.10278349403858175  0.04144258992582089  1.0000
  H   H792      1.0  0.031384555996104346  0.02460457701758756  0.03993787070605742  1.0000
  H   H793      1.0  0.032659094445062375  0.9500816037423935  0.014423949624483567  1.0000
  H   H794      1.0  0.048986196752316385  0.9715077975628016  0.9685345680413271  1.0000
  H   H795      1.0  0.9481970622803086  0.006414892078769663  0.9496042978064879  1.0000
  H   H796      1.0  0.9317752718051371  0.9866892311136823  0.9951017702587754  1.0000
  H   H797      1.0  0.5803618282155539  0.08728800039178936  0.00947953929233103  1.0000
  H   H798      1.0  0.03701051110103516  0.06285838345540515  0.9825839807760467  1.0000
  H   H799      1.0  0.566919850925259  0.015830518905946  0.9144850028251581  1.0000
  H   H800      1.0  0.6151561465130299  0.0647149387091496  0.9246047321125156  1.0000
  H   H801      1.0  0.9817974519788234  0.08421670119507588  0.9692611887542356  1.0000
  H   H802      1.0  0.9419676750712975  0.14397137044645497  0.9613234400333379  1.0000
  H   H803      1.0  0.9537610519035772  0.1225784575443026  0.8716758151678584  1.0000
  H   H804      1.0  0.9943478245820907  0.06354710625052723  0.8791581019258544  1.0000
  H   H805      1.0  0.9604151222813978  0.9942717163396987  0.8993128233911923  1.0000
  H   H806      1.0  0.9540957178371507  0.923562874123632  0.8702204553143071  1.0000
  H   H807      1.0  0.05699759858717035  0.890808026941329  0.8867060599436175  1.0000
  H   H808      1.0  0.06455195359021515  0.9644580412384632  0.911656901799698  1.0000
  C   C1065     1.0  0.6867091269212331  0.055791561319084734  0.9652107549260114  1.0000
  C   C1066     1.0  0.6750346704986088  0.014196102285441548  0.9551185651992012  1.0000
  C   C1067     1.0  0.691395842960229  0.9739299213652483  0.9605989377481639  1.0000
  C   C1068     1.0  0.722633306397354  0.974920689813066  0.9732374776117549  1.0000
  C   C1069     1.0  0.7350653344537104  0.017781195554672724  0.9827788761276139  1.0000
  C   C1070     1.0  0.7165681689879815  0.05778476569839386  0.9794698920064391  1.0000
  H   H809      1.0  0.6525880072217112  0.012632387985825666  0.9429439610094497  1.0000
  H   H810      1.0  0.6805132791740393  0.9413733171965707  0.9537225213222139  1.0000
  H   H811      1.0  0.758380053108296  0.02001535086294215  0.9939811219872635  1.0000
  H   H812      1.0  0.7270321047505789  0.09092870415512878  0.986039136410897  1.0000
  C   C1071     1.0  0.8003148501048567  0.959235461974796  0.9683735675335107  1.0000
  C   C1072     1.0  0.780131104473368  0.9280422925966624  0.9822916377486957  1.0000
  C   C1073     1.0  0.7963724889393031  0.8928603959577341  0.9967859203076449  1.0000
  C   C1074     1.0  0.830116746213752  0.8843599028956451  0.9928964869872371  1.0000
  C   C1075     1.0  0.8489918310060257  0.9125242890275602  0.9760486312153395  1.0000
  C   C1076     1.0  0.8341376506288127  0.9516338769167384  0.9655963087736771  1.0000
  C   C1077     1.0  0.7407188403788015  0.9271974807932805  0.9798363800044949  1.0000
  C   C1078     1.0  0.7350320890823587  0.886150659365195  0.9565506223476739  1.0000
  C   C1079     1.0  0.7339710622388197  0.8389216358342363  0.9625669571134465  1.0000
  C   C1080     1.0  0.7313815649457713  0.8050145271620087  0.9408424806968981  1.0000
  C   C1081     1.0  0.7312144549922026  0.8181293809660413  0.9130656562430921  1.0000
  C   C1082     1.0  0.7316218310098257  0.8644025936293215  0.9073670856374835  1.0000
  C   C1083     1.0  0.7339856745738836  0.896853694722488  0.9284835732942512  1.0000
  C   C1084     1.0  0.7358359798182386  0.9476694067087261  0.03383997647250946  1.0000
  C   C1085     1.0  0.723506639053219  0.9405537292674979  0.059997262923346166  1.0000
  C   C1086     1.0  0.7014525137663006  0.9041188462671279  0.06452052982189459  1.0000
  C   C1087     1.0  0.6910093009846355  0.8785875502037598  0.04080388396389116  1.0000
  C   C1088     1.0  0.6992084497545558  0.8913339562152951  0.014644266108863935  1.0000
  C   C1089     1.0  0.7252319966462816  0.9213008652781379  0.010598069136108723  1.0000
  C   C1090     1.0  0.6937023492304312  0.887125384334821  0.0963403736068545  1.0000
  C   C1091     1.0  0.7991783823937113  0.853171091995535  0.09618805865274921  1.0000
  C   C1092     1.0  0.7865942176935782  0.8807589440671629  0.11771509760444895  1.0000
  C   C1093     1.0  0.7531436918386791  0.8897121961672467  0.11884591432908605  1.0000
  C   C1094     1.0  0.7305007398269914  0.8672456625454672  0.10121275739603648  1.0000
  C   C1095     1.0  0.7437231436630187  0.8330901195476044  0.08280785723933518  1.0000
  C   C1096     1.0  0.7777179558006149  0.8285388433351166  0.07904425852635227  1.0000
  C   C1097     1.0  0.6656512672340189  0.8492724041693874  0.09893798969480883  1.0000
  C   C1098     1.0  0.6348471463222622  0.8551643285336212  0.08663458509880402  1.0000
  C   C1099     1.0  0.6143844062271516  0.8183617313977256  0.08099511862698605  1.0000
  C   C1100     1.0  0.621480330247449  0.7756241877328048  0.09279942164875987  1.0000
  C   C1101     1.0  0.6488571199683713  0.7716448096043841  0.11001715490308832  1.0000
  C   C1102     1.0  0.6711130681652345  0.8082616058598291  0.11315433453500118  1.0000
  C   C1103     1.0  0.6845182803958336  0.9320951613304934  0.1450362482525798  1.0000
  C   C1104     1.0  0.6805320463986148  0.9740762852493363  0.15940427251855713  1.0000
  C   C1105     1.0  0.6695840597217114  0.012225473282055921  0.1450258679566811  1.0000
  C   C1106     1.0  0.6607582655930733  0.007965072255784245  0.11714460501556777  1.0000
  C   C1107     1.0  0.6643528085260318  0.9665867928421995  0.10279225711482522  1.0000
  C   C1108     1.0  0.6803811580674476  0.9297651428634621  0.11538355603993863  1.0000
  H   H813      1.0  0.7899523156668377  0.9872222996612265  0.9564002139785297  1.0000
  H   H814      1.0  0.7824383386884733  0.8693731452880653  0.00969561892124271  1.0000
  H   H815      1.0  0.840955253243614  0.8531722018781189  0.0015439089991677868  1.0000
  H   H816      1.0  0.8475693985393216  0.9729611754859837  0.9510405918104295  1.0000
  H   H817      1.0  0.7373387985303278  0.8276258918524249  0.9840626433346766  1.0000
  H   H818      1.0  0.7319410266973893  0.7689222945176023  0.9462720109802344  1.0000
  H   H819      1.0  0.7329299337365182  0.8762259165665157  0.8862781375412633  1.0000
  H   H820      1.0  0.7371311755365163  0.932766131141226  0.9231514906866987  1.0000
  H   H821      1.0  0.7551037174691133  0.9736898870832102  0.031982115349417035  1.0000
  H   H822      1.0  0.7322286014866586  0.9604513677061636  0.07842207630075108  1.0000
  H   H823      1.0  0.675911261477202  0.8482380439532697  0.04150762565726779  1.0000
  H   H824      1.0  0.688079904790775  0.8718265677527043  0.99724773755375  1.0000
  H   H825      1.0  0.8031259746103789  0.899218614442832  0.1321250667395679  1.0000
  H   H826      1.0  0.7457314170913218  0.9163316178012696  0.13351369611948477  1.0000
  H   H827      1.0  0.7288161327444236  0.8136396645029911  0.06754776305439068  1.0000
  H   H828      1.0  0.7862777869319277  0.8043335021057013  0.06282197446443105  1.0000
  H   H829      1.0  0.6285136863704228  0.8884609442440483  0.07805664751656244  1.0000
  H   H830      1.0  0.5937261479851799  0.8238442075402068  0.0663887712408857  1.0000
  H   H831      1.0  0.653749172094798  0.7380825844861902  0.11929968154980031  1.0000
  H   H832      1.0  0.6937408996187016  0.8023673824156231  0.12482750688001397  1.0000
  H   H833      1.0  0.6963420457691364  0.904453939806096  0.15630416537199673  1.0000
  H   H834      1.0  0.6890106940676207  0.9772059921053224  0.1811086238716284  1.0000
  H   H835      1.0  0.6502980696635275  0.036650490263799185  0.10573327033853014  1.0000
  H   H836      1.0  0.6566055530148982  0.9654197064049022  0.08071824012209645  1.0000
  C   C1109     1.0  0.6486245937055027  0.033988312806773946  0.837442022979519  1.0000
  C   C1110     1.0  0.6249455029586868  0.007828644676215468  0.8506525383314053  1.0000
  C   C1111     1.0  0.6165126820401015  0.9648703418313285  0.8401578473350543  1.0000
  C   C1112     1.0  0.6296235733370004  0.9490422215896254  0.8145502928813013  1.0000
  C   C1113     1.0  0.6524680691019579  0.976242044082186  0.8008207627344803  1.0000
  C   C1114     1.0  0.6626865022738012  0.01749942290239237  0.8124996548343761  1.0000
  H   H837      1.0  0.6144328265413055  0.019429226303827818  0.8708242072186189  1.0000
  H   H838      1.0  0.5990830695658115  0.9436444474683147  0.8518854632728418  1.0000
  H   H839      1.0  0.6649847859209602  0.9636117986991098  0.7818968477828445  1.0000
  H   H840      1.0  0.6824662042452138  0.03673107777717921  0.8028819929200778  1.0000
  C   C1115     1.0  0.5576123429466318  0.905606035815917  0.8081081541409091  1.0000
  C   C1116     1.0  0.5864008901826098  0.8782717503581007  0.8086928401956108  1.0000
  C   C1117     1.0  0.5821832909198883  0.8319097966706331  0.814791793643026  1.0000
  C   C1118     1.0  0.5521793653138538  0.8159533169421889  0.8246318904694392  1.0000
  C   C1119     1.0  0.03213047524822196  0.8727151375234764  0.8169462346489382  1.0000
  C   C1120     1.0  0.037571643329497056  0.9187867212901984  0.8101609106155687  1.0000
  C   C1121     1.0  0.6230126286286553  0.8990992186346491  0.8030429934278942  1.0000
  C   C1122     1.0  0.6524503306299652  0.8730658919854181  0.818895188164611  1.0000
  C   C1123     1.0  0.6843208387828856  0.8693463721866779  0.8068349790725184  1.0000
  C   C1124     1.0  0.7086722788154439  0.8444527287520067  0.8200285470025295  1.0000
  C   C1125     1.0  0.7031870010063644  0.8260320971172299  0.8458034572473021  1.0000
  C   C1126     1.0  0.6724956379116525  0.8319116562367206  0.8587110374331655  1.0000
  C   C1127     1.0  0.6486111306821488  0.8585030594219574  0.8465957492199778  1.0000
  C   C1128     1.0  0.6054771550174707  0.9267333041326234  0.753567113690353  1.0000
  C   C1129     1.0  0.5944863286598631  0.9159679266375433  0.7266990947346159  1.0000
  C   C1130     1.0  0.6009161538646692  0.8731521074115923  0.7137258432889854  1.0000
  C   C1131     1.0  0.6195360253235808  0.8414656677553307  0.729482708777653  1.0000
  C   C1132     1.0  0.6290551585368264  0.8512571893410323  0.756727807870118  1.0000
  C   C1133     1.0  0.6214156877062557  0.89372494671667  0.7695548878020732  1.0000
  C   C1134     1.0  0.5815897544977012  0.8600145603602483  0.6846313567843657  1.0000
  C   C1135     1.0  0.9960877167653557  0.9012347966008237  0.732355296785536  1.0000
  C   C1136     1.0  0.014277598020012938  0.9348657817991193  0.7195621116973315  1.0000
  C   C1137     1.0  0.044733180550195914  0.9248924209983821  0.7081628520583801  1.0000
  C   C1138     1.0  0.05795647223296364  0.8801972342731689  0.7074150470681275  1.0000
  C   C1139     1.0  0.04095268188758587  0.8472933984026778  0.7229685434942902  1.0000
  C   C1140     1.0  0.009986535671828944  0.8569935204746627  0.7350584105746648  1.0000
  C   C1141     1.0  0.5861055391230695  0.8054458886433161  0.6795937356318984  1.0000
  C   C1142     1.0  0.6167299446849711  0.7874338957086564  0.6701052978094002  1.0000
  C   C1143     1.0  0.6232764445014837  0.7406383912827461  0.6692494530046916  1.0000
  C   C1144     1.0  0.5985815099337299  0.7101540449897502  0.6768122400165958  1.0000
  C   C1145     1.0  0.5673928383739277  0.7267215790476055  0.6832416681905816  1.0000
  C   C1146     1.0  0.5614120004206307  0.7734153417600088  0.685535925426966  1.0000
  C   C1147     1.0  0.5939707702615827  0.8716813453070213  0.6302153035701408  1.0000
  C   C1148     1.0  0.5989760294014818  0.9005537688217538  0.6073595867434085  1.0000
  C   C1149     1.0  0.6008522763517065  0.9476437877671008  0.6121175754349314  1.0000
  C   C1150     1.0  0.6067522173819903  0.964601787724786  0.6393732666660684  1.0000
  C   C1151     1.0  0.6046935101452224  0.9352572072976048  0.661525665484971  1.0000
  C   C1152     1.0  0.5961127805180965  0.8884428761328904  0.6581658390981698  1.0000
  H   H841      1.0  0.5592895124826989  0.9416543112629198  0.8025599919044449  1.0000
  H   H842      1.0  0.6035403908939216  0.8090610474549732  0.8147091749613834  1.0000
  H   H843      1.0  0.05291327340240566  0.805272229434868  0.8217211707623366  1.0000
  H   H844      1.0  0.01680196444725257  0.9430853387149771  0.8104320693655754  1.0000
  H   H845      1.0  0.690285157966836  0.8814945696273606  0.7862078482224033  1.0000
  H   H846      1.0  0.7324074797164117  0.8385734749425411  0.8098198437503261  1.0000
  H   H847      1.0  0.667683032198099  0.8165010958023434  0.8788742326094411  1.0000
  H   H848      1.0  0.6257925627491949  0.8638397159896438  0.8584123391226113  1.0000
  H   H849      1.0  0.5963834116281378  0.9592879846517515  0.7630958016398053  1.0000
  H   H850      1.0  0.5786354812749684  0.9415001454476691  0.7167424843828093  1.0000
  H   H851      1.0  0.6237938128694988  0.805854413836383  0.7231380177130442  1.0000
  H   H852      1.0  0.6401676809048588  0.823510731690554  0.7686333717375974  1.0000
  H   H853      1.0  0.005159590919785684  0.9700236182463353  0.7175178289336096  1.0000
  H   H854      1.0  0.533104981435952  0.8984005347473514  0.6458048132677886  1.0000
  H   H855      1.0  0.05062804089309855  0.8123895593086081  0.7249386812873071  1.0000
  H   H856      1.0  0.9957965807637736  0.8304618375484872  0.7452205084167107  1.0000
  H   H857      1.0  0.6366467356034771  0.8107931537186067  0.6653621381120182  1.0000
  H   H858      1.0  0.6482323530531262  0.7283105705405376  0.6637076460514307  1.0000
  H   H859      1.0  0.5476770981957427  0.7031824979809448  0.689173265846977  1.0000
  H   H860      1.0  0.536772865818517  0.782801441551377  0.6928063694115193  1.0000
  H   H861      1.0  0.5876135070728749  0.8356583311102294  0.6266860029645854  1.0000
  H   H862      1.0  0.5972688955872889  0.8856694216233683  0.5859126243600701  1.0000
  H   H863      1.0  0.6113130767619273  0.0014567539180521116  0.643415226783355  1.0000
  H   H864      1.0  0.6116163252017964  0.9511628445557292  0.6814770178878039  1.0000
  C   C1153     1.0  0.5415363608269994  0.41511296697043226  0.5426818695836194  1.0000
  C   C1154     1.0  0.5462592680996902  0.4395884000033238  0.5184152798857586  1.0000
  C   C1155     1.0  0.5778867998869032  0.4578173231689936  0.5127188277078847  1.0000
  C   C1156     1.0  0.6039196915294266  0.45257613230095634  0.5320791387728125  1.0000
  C   C1157     1.0  0.5960230716285746  0.43665782680561893  0.558726841244169  1.0000
  C   C1158     1.0  0.5659812744378547  0.41513935767134286  0.5632454476017018  1.0000
  H   H865      1.0  0.5264233987256162  0.4428103383395034  0.5028977967310814  1.0000
  H   H866      1.0  0.5830397958004109  0.4758742607611703  0.493165739719124  1.0000
  H   H867      1.0  0.6142052223534596  0.4398189541036715  0.5757759476508372  1.0000
  H   H868      1.0  0.5607316539258762  0.3994318558498584  0.5833853400728987  1.0000
  C   C1159     1.0  0.6990599880460451  0.451729535163972  0.5458870507458073  1.0000
  C   C1160     1.0  0.6685892877117473  0.4344132693943706  0.5377014459799817  1.0000
  C   C1161     1.0  0.6646717297192065  0.3871152252461339  0.53776288038428  1.0000
  C   C1162     1.0  0.6885973560694559  0.35886893280390886  0.5485901645349361  1.0000
  C   C1163     1.0  0.7173583747140987  0.37791195667944977  0.5594937120840315  1.0000
  C   C1164     1.0  0.7241739863100363  0.4245912177002189  0.5565363869667717  1.0000
  C   C1165     1.0  0.6412145827959855  0.46924462765844704  0.5262110939484499  1.0000
  C   C1166     1.0  0.6381215167374535  0.5203139213276876  0.541037969661704  1.0000
  C   C1167     1.0  0.625275561259406  0.5567116501450214  0.5257683425519546  1.0000
  C   C1168     1.0  0.6268451894076852  0.6015009745694716  0.536125335745568  1.0000
  C   C1169     1.0  0.6399894055464658  0.6119166496905042  0.5622307207169113  1.0000
  C   C1170     1.0  0.6510031616027405  0.5762769951534248  0.5785786275434839  1.0000
  C   C1171     1.0  0.6494640544016329  0.5312460748968909  0.5682640029045591  1.0000
  C   C1172     1.0  0.6429338912442811  0.435491068037613  0.47524172265813763  1.0000
  C   C1173     1.0  0.6485765135683039  0.4388930782786997  0.4470433310851805  1.0000
  C   C1174     1.0  0.6676588376248956  0.47533603447102935  0.43657617964937695  1.0000
  C   C1175     1.0  0.6818942241002094  0.5060358344905781  0.4560042804018065  1.0000
  C   C1176     1.0  0.6755250977232322  0.502910182320083  0.4844505280196915  1.0000
  C   C1177     1.0  0.6530988024155593  0.47005025126814365  0.49400887395742593  1.0000
  C   C1178     1.0  0.672522798046518  0.48330882620489407  0.4038168131641987  1.0000
  C   C1179     1.0  0.7816539406549473  0.4747696826003794  0.39424363823232333  1.0000
  C   C1180     1.0  0.7633934941131163  0.43680674728868346  0.4030562976075394  1.0000
  C   C1181     1.0  0.7293629518513499  0.43903698474000863  0.4045709734376547  1.0000
  C   C1182     1.0  0.7122929822973003  0.48005495832711065  0.4000375380859811  1.0000
  C   C1183     1.0  0.7309118974402744  0.5183592860700141  0.39326916147448693  1.0000
  C   C1184     1.0  0.7644556202431109  0.5145651411355692  0.3874350114938751  1.0000
  C   C1185     1.0  0.6565281228911474  0.5313341209195198  0.3955295238671205  1.0000
  C   C1186     1.0  0.6593869753981692  0.5467397268660678  0.3679857264641013  1.0000
  C   C1187     1.0  0.6413265501505673  0.5842964071823699  0.3593383044521705  1.0000
  C   C1188     1.0  0.6207119135672747  0.6070714519169921  0.37767329649363574  1.0000
  C   C1189     1.0  0.6184824680675965  0.5943284961352228  0.4050031326954778  1.0000
  C   C1190     1.0  0.6348952199100588  0.5566427810843491  0.4133539748245888  1.0000
  C   C1191     1.0  0.6173540171888932  0.4445066003153722  0.38489289821256284  1.0000
  C   C1192     1.0  0.5990601212064984  0.41511369976911866  0.36724851361252075  1.0000
  C   C1193     1.0  0.6150107818653509  0.38693945079929315  0.34685017295772375  1.0000
  C   C1194     1.0  0.649382838487099  0.3897180075035538  0.3449118115807231  1.0000
  C   C1195     1.0  0.6667564664258387  0.4220402523080191  0.36122370513581054  1.0000
  C   C1196     1.0  0.6520499010502744  0.44786268693535775  0.38295029998009333  1.0000
  H   H869      1.0  0.7048815386233742  0.4882363019103536  0.54301234431019  1.0000
  H   H870      1.0  0.6420731155215764  0.3725988430068432  0.5286451674153064  1.0000
  H   H871      1.0  0.6844592471852019  0.32180623683501414  0.5493083115369068  1.0000
  H   H872      1.0  0.7475841439794687  0.4397991745129496  0.5625548401602786  1.0000
  H   H873      1.0  0.617080001220907  0.5512566003447539  0.504126484817049  1.0000
  H   H874      1.0  0.6168239652677024  0.6285473021588195  0.5233342690850981  1.0000
  H   H875      1.0  0.6600438608432412  0.5844144377095901  0.5996188518018124  1.0000
  H   H876      1.0  0.6584746432242202  0.5039855478154762  0.5813791890083964  1.0000
  H   H877      1.0  0.6284774488473927  0.4056805061926322  0.48190205945517595  1.0000
  H   H878      1.0  0.6392435029357024  0.41215574584392556  0.43274818073326754  1.0000
  H   H879      1.0  0.6976130086159621  0.5343453063468899  0.449030416300073  1.0000
  H   H880      1.0  0.6877979188240136  0.5271911506748737  0.498906678879421  1.0000
  H   H881      1.0  0.7747351097184138  0.4046707582830065  0.4083947354982953  1.0000
  H   H882      1.0  0.7151904674339737  0.4079927167519762  0.40923151445339395  1.0000
  H   H883      1.0  0.7203647385149605  0.552450075033332  0.3902355729587875  1.0000
  H   H884      1.0  0.7779980459050456  0.5426891041264814  0.3792748278608626  1.0000
  H   H885      1.0  0.6743001634065139  0.5276576744298398  0.3522055582703551  1.0000
  H   H886      1.0  0.6414711445119033  0.592855964795675  0.33710116852389094  1.0000
  H   H887      1.0  0.6014370832155417  0.6110904093228834  0.4201541278520993  1.0000
  H   H888      1.0  0.6295995848901246  0.5459173789240265  0.4344768177645599  1.0000
  H   H889      1.0  0.6038772379465159  0.46518060067526995  0.4010670939649126  1.0000
  H   H890      1.0  0.5723784572604885  0.4119088522617292  0.36929703323171165  1.0000
  H   H891      1.0  0.6631906363063262  0.3694342984473119  0.3291846040803374  1.0000
  H   H892      1.0  0.6929224136896233  0.4246420066252884  0.35580688541888084  1.0000
  C   C1197     1.0  0.5798929258663138  0.41676156603243775  0.1465718965172659  1.0000
  C   C1198     1.0  0.5963753145604165  0.44493379980831593  0.1662004005333722  1.0000
  C   C1199     1.0  0.5801550507092439  0.4827056734734217  0.17864404504539608  1.0000
  C   C1200     1.0  0.5470112230499627  0.49294399802404737  0.1725880956809898  1.0000
  C   C1201     1.0  0.5316712082262884  0.46618513454595345  0.1514389842371118  1.0000
  C   C1202     1.0  0.5473268841821507  0.428086911523637  0.1390120753041899  1.0000
  H   H893      1.0  0.6213241200190841  0.43562368595109796  0.17252581390559762  1.0000
  H   H894      1.0  0.5933094054786816  0.5031004123485511  0.19501906774696948  1.0000
  H   H895      1.0  0.5072236270730023  0.47461172022020304  0.14432297363439825  1.0000
  H   H896      1.0  0.5331531994916131  0.4057414195370745  0.12463748391223588  1.0000
  C   C1203     1.0  0.976638632234363  0.5152075656923784  0.19623801106535874  1.0000
  C   C1204     1.0  0.0008253890104092942  0.5457982484952252  0.18726011432685735  1.0000
  C   C1205     1.0  0.9892371606855246  0.5812209149784738  0.1692132284572742  1.0000
  C   C1206     1.0  0.9562264165907963  0.5871141176493255  0.16304923927841214  1.0000
  C   C1207     1.0  0.9333745041035845  0.5568012145092298  0.17368734783238393  1.0000
  C   C1208     1.0  0.943979114628509  0.519499429415749  0.18875593615013622  1.0000
  C   C1209     1.0  0.5286393598414086  0.5341217866068964  0.1908258518894448  1.0000
  C   C1210     1.0  0.5520807118974884  0.5786805598454289  0.18588334814225327  1.0000
  C   C1211     1.0  0.5676870882158632  0.6036911996633807  0.20730044069453624  1.0000
  C   C1212     1.0  0.5847921535693595  0.644007005929789  0.20242106609383065  1.0000
  C   C1213     1.0  0.5863348823378667  0.6612273757465029  0.17549118904824845  1.0000
  C   C1214     1.0  0.5755998850688807  0.6332586605579681  0.1532049055965301  1.0000
  C   C1215     1.0  0.5589107416831444  0.5923087520920021  0.15857935675877127  1.0000
  C   C1216     1.0  0.5006526603793927  0.547795619247551  0.24001150702736962  1.0000
  C   C1217     1.0  0.9974638603406225  0.533952932449114  0.27221796387386243  1.0000
  C   C1218     1.0  0.009567732378664706  0.4929941055006265  0.2830092347530333  1.0000
  C   C1219     1.0  0.5298597029142038  0.4724586588870712  0.2634010676431775  1.0000
  C   C1220     1.0  0.5380092655899082  0.48429175713080924  0.23640382459564052  1.0000
  C   C1221     1.0  0.5229641386363438  0.5211781554221028  0.22363817906798375  1.0000
  C   C1222     1.0  0.990525884419728  0.47060485890070003  0.3090531853200782  1.0000
  C   C1223     1.0  0.8846380441091765  0.44164750258090807  0.30386303737073217  1.0000
  C   C1224     1.0  0.9011283217950862  0.4533393276356332  0.2795879739619338  1.0000
  C   C1225     1.0  0.9343379414345927  0.4662959114471498  0.2806662536787571  1.0000
  C   C1226     1.0  0.9509261386795828  0.4675500105229574  0.30666995411884784  1.0000
  C   C1227     1.0  0.9332521973414373  0.4560986668205289  0.33087934626787896  1.0000
  C   C1228     1.0  0.9005346294396284  0.4427952476872474  0.3292439200569014  1.0000
  C   C1229     1.0  0.0034620046746982602  0.5055988764239063  0.3334193411214569  1.0000
  C   C1230     1.0  0.982627547726698  0.5407859913697732  0.34443092848500817  1.0000
  C   C1231     1.0  0.9947983428741415  0.5735314284587459  0.36296928958897834  1.0000
  C   C1232     1.0  0.5408932605635405  0.5843182243962507  0.3570292182216452  1.0000
  C   C1233     1.0  0.557877980982283  0.5452560061074119  0.34700481818233686  1.0000
  C   C1234     1.0  0.5421347715361343  0.5107335450451653  0.33264399657065663  1.0000
  C   C1235     1.0  0.00838957269579943  0.39861718494948933  0.3390903721665178  1.0000
  C   C1236     1.0  0.01691060611618944  0.35246555212489744  0.3412765895884464  1.0000
  C   C1237     1.0  0.012188001589236386  0.3220593594245193  0.3186729656621109  1.0000
  C   C1238     1.0  1.9125687386267742e-05  0.33947583324924036  0.2935293468821975  1.0000
  C   C1239     1.0  0.9933970259575786  0.3865537237085394  0.29133889260480006  1.0000
  C   C1240     1.0  0.9982548293353078  0.41704476648496275  0.31375185803503713  1.0000
  H   H897      1.0  0.9824550140160765  0.4866398627798874  0.20960126505689736  1.0000
  H   H898      1.0  0.0051528231383661804  0.6048456118013255  0.15888631693748975  1.0000
  H   H899      1.0  0.9487054481040981  0.615866960723994  0.15006412463746874  1.0000
  H   H900      1.0  0.9261405717170769  0.49532663451523923  0.1964278221903634  1.0000
  H   H901      1.0  0.5663007026552026  0.5936801072872236  0.22924142042554302  1.0000
  H   H902      1.0  0.5954819006970544  0.6637376509648433  0.2201194706011006  1.0000
  H   H903      1.0  0.5773162738894067  0.6442445300211935  0.13148826736259916  1.0000
  H   H904      1.0  0.5493173943796689  0.572303866297691  0.14082290733157807  1.0000
  H   H905      1.0  0.0002251078543056284  0.5845266507233186  0.24109826045513064  1.0000
  H   H906      1.0  0.9752694933572588  0.5502920236984096  0.2810751102315015  1.0000
  H   H907      1.0  0.5435820797403884  0.44432916778788284  0.27239167494808547  1.0000
  H   H908      1.0  0.5556147771074728  0.46229391672266235  0.2258053306403025  1.0000
  H   H909      1.0  0.8882719599586187  0.4514022377788813  0.25924259400049743  1.0000
  H   H910      1.0  0.9469522597601676  0.4709389998153632  0.2610983366958554  1.0000
  H   H911      1.0  0.9464502727909638  0.4545095632788356  0.35084764609258734  1.0000
  H   H912      1.0  0.8876451308594892  0.43157050227596383  0.34771237304563546  1.0000
  H   H913      1.0  0.9571931632007215  0.5433783252696319  0.33736173513522544  1.0000
  H   H914      1.0  0.9767508886781422  0.5992265137297629  0.3708265380559679  1.0000
  H   H915      1.0  0.5841117543029606  0.5403120772379965  0.35060402690312825  1.0000
  H   H916      1.0  0.5566965495976118  0.48282080501174046  0.32411732493958817  1.0000
  H   H917      1.0  0.008834644859710972  0.42125006811544197  0.35780032591697664  1.0000
  H   H918      1.0  0.026557712595007957  0.3412940644947771  0.361717298797932  1.0000
  H   H919      1.0  0.9984381072260454  0.31742913965530833  0.27415208839539423  1.0000
  H   H920      1.0  0.9868234615927985  0.39974526597476523  0.2709871573601604  1.0000
  C   C1241     1.0  0.8142133507226401  0.34991489537701703  0.2879811846457333  1.0000
  C   C1242     1.0  0.784657068771699  0.3598651713002289  0.3014374376148133  1.0000
  C   C1243     1.0  0.7550121823122756  0.34030253952637174  0.29177105186262314  1.0000
  C   C1244     1.0  0.7543839234837452  0.31149162220317067  0.267258724547569  1.0000
  C   C1245     1.0  0.7849605755149436  0.2997346910167745  0.25500997538711234  1.0000
  C   C1246     1.0  0.8141339409017673  0.3183347129954691  0.2652885867545519  1.0000
  H   H921      1.0  0.7842142844508295  0.3811463862070384  0.320469392380905  1.0000
  H   H922      1.0  0.7321506080312268  0.34610512841884583  0.3032147984839975  1.0000
  H   H923      1.0  0.7853374570114537  0.2775401251042785  0.2362957847811847  1.0000
  H   H924      1.0  0.8377863291828338  0.3094798991050157  0.2549803173988304  1.0000
  C   C1247     1.0  0.6823616052281846  0.3585193964248612  0.26299432951816754  1.0000
  C   C1248     1.0  0.6876271319018963  0.31114751433450893  0.2615919303579769  1.0000
  C   C1249     1.0  0.6605149875851412  0.28308726124042627  0.26618680011394896  1.0000
  C   C1250     1.0  0.6306120628754452  0.3014633267472865  0.27453340538759113  1.0000
  C   C1251     1.0  0.6271706398344147  0.34878582915682155  0.27867281318066134  1.0000
  C   C1252     1.0  0.6529472151232113  0.3775789164599853  0.2714193166179835  1.0000
  C   C1253     1.0  0.7221569023949367  0.2855880015934113  0.2550120938148468  1.0000
  C   C1254     1.0  0.7279170330358752  0.23622197908551965  0.2702393523699077  1.0000
  C   C1255     1.0  0.7480392014606384  0.20174422041201143  0.25784655012351004  1.0000
  C   C1256     1.0  0.7555122416209281  0.16253555732679403  0.272463701491056  1.0000
  C   C1257     1.0  0.743541447167409  0.15677005296355628  0.29919190421632075  1.0000
  C   C1258     1.0  0.7228657114374334  0.18973570836151046  0.3111864420486461  1.0000
  C   C1259     1.0  0.7172137242032695  0.23013530357518283  0.29787847902097603  1.0000
  C   C1260     1.0  0.7289066773072269  0.32890645829811826  0.2096472349387344  1.0000
  C   C1261     1.0  0.7329850470266639  0.331804464888058  0.18116391483549693  1.0000
  C   C1262     1.0  0.7323827552220828  0.29248514428217903  0.16350787888291554  1.0000
  C   C1263     1.0  0.7193725060193117  0.25206458415431654  0.17455823347400684  1.0000
  C   C1264     1.0  0.714340653491537  0.2491858456504778  0.20326250558994505  1.0000
  C   C1265     1.0  0.7212630082249618  0.286743955050218  0.2211405527690944  1.0000
  C   C1266     1.0  0.7448154518924482  0.29509205708877306  0.13134675638993945  1.0000
  C   C1267     1.0  0.6489878935299584  0.3498346506199366  0.10640841325749201  1.0000
  C   C1268     1.0  0.6759002735949509  0.37847774756991814  0.11119860205057822  1.0000
  C   C1269     1.0  0.706210109700953  0.36036136343614417  0.11786550597359326  1.0000
  C   C1270     1.0  0.7115305789636995  0.31271922629102444  0.1183876984101295  1.0000
  C   C1271     1.0  0.6843210811696128  0.28376310032028834  0.11221904869025168  1.0000
  C   C1272     1.0  0.653194657769549  0.3020356994085039  0.10598769350943481  1.0000
  C   C1273     1.0  0.7580682221136762  0.24617070282928522  0.11873702714353651  1.0000
  C   C1274     1.0  0.7791919192002634  0.21878598261244367  0.13445851488903918  1.0000
  C   C1275     1.0  0.7969020256467019  0.18260774609891545  0.12186933439166019  1.0000
  C   C1276     1.0  0.7935466092840617  0.173804010739436  0.09319217815072263  1.0000
  C   C1277     1.0  0.7701646283962215  0.19746664928500285  0.0779388629345283  1.0000
  C   C1278     1.0  0.7531918460581529  0.2338737882383765  0.09056956461550207  1.0000
  C   C1279     1.0  0.7853452942942287  0.34751193327579344  0.10138096055814998  1.0000
  C   C1280     1.0  0.8140195441916952  0.3732274423625197  0.09791288251411963  1.0000
  C   C1281     1.0  0.8364739554299693  0.3759374992010931  0.12023009501076061  1.0000
  C   C1282     1.0  0.8303115301589804  0.3538414801638903  0.14480067908851152  1.0000
  C   C1283     1.0  0.8015173203804655  0.329287574398754  0.14804780511984117  1.0000
  C   C1284     1.0  0.7778666661686856  0.32612917194263796  0.12668219036150477  1.0000
  H   H925      1.0  0.7022673797383154  0.38219440657486875  0.2584058150453988  1.0000
  H   H926      1.0  0.6629876522230084  0.24560441174047123  0.2649093881900895  1.0000
  H   H927      1.0  0.6107379659341295  0.27761679979899995  0.2798654879951437  1.0000
  H   H928      1.0  0.6516115378293421  0.4151718627390939  0.2747367744500961  1.0000
  H   H929      1.0  0.7604317330616933  0.20522497268929316  0.23793121099216236  1.0000
  H   H930      1.0  0.7712184289707303  0.13614868676145578  0.2625346306997969  1.0000
  H   H931      1.0  0.7148855462688504  0.18830970983006723  0.33281135236167636  1.0000
  H   H932      1.0  0.7001315242280952  0.25403135271598115  0.30847061769311074  1.0000
  H   H933      1.0  0.7333107718934622  0.358757572850781  0.22310433527890813  1.0000
  H   H934      1.0  0.7424828044486564  0.36399995084854136  0.17305986953744665  1.0000
  H   H935      1.0  0.7155748294351192  0.22207734929853123  0.16066367780667395  1.0000
  H   H936      1.0  0.705646465785546  0.21726485381204952  0.21211393219270117  1.0000
  H   H937      1.0  0.6736821991365168  0.4161502828439856  0.1125416852342049  1.0000
  H   H938      1.0  0.7252344525893071  0.3850647935186994  0.12427226697082067  1.0000
  H   H939      1.0  0.6866902498496428  0.24639258542496925  0.11431650399010779  1.0000
  H   H940      1.0  0.6317043670505832  0.2798835654906421  0.10310769100448139  1.0000
  H   H941      1.0  0.7829530243626942  0.22885568981649917  0.15661197292180895  1.0000
  H   H942      1.0  0.8159654376783886  0.16498902653590258  0.1336369886136284  1.0000
  H   H943      1.0  0.7672337377841804  0.19072270735358204  0.055712107302147346  1.0000
  H   H944      1.0  0.7367289730385441  0.25383750778271075  0.07757131572260521  1.0000
  H   H945      1.0  0.76809044183333  0.3429264230502396  0.08381749989756307  1.0000
  H   H946      1.0  0.8190119458818089  0.3897430614103541  0.07786005742280762  1.0000
  H   H947      1.0  0.8485741010053721  0.35284714384474325  0.1615521463984926  1.0000
  H   H948      1.0  0.7981976738312958  0.31222099070899023  0.16783074251778718  1.0000
  C   C1285     1.0  0.8511150617775902  0.3923065374227804  0.3963430001171404  1.0000
  C   C1286     1.0  0.8344590589768002  0.3686576936778929  0.3753832761127202  1.0000
  C   C1287     1.0  0.8409061558966062  0.3222622182987231  0.37059351100518095  1.0000
  C   C1288     1.0  0.8653796780973925  0.3000739816790756  0.3862063234079075  1.0000
  C   C1289     1.0  0.8862178169732104  0.3279262603450807  0.40291436294933286  1.0000
  C   C1290     1.0  0.8779333392713554  0.3730008800479879  0.40885231588893156  1.0000
  H   H949      1.0  0.8128297164590917  0.38341301800183614  0.36582493017498585  1.0000
  H   H950      1.0  0.8258579406806239  0.30352522304644897  0.3549912907411265  1.0000
  H   H951      1.0  0.9055343087577099  0.31247481388953974  0.41582617999066507  1.0000
  H   H952      1.0  0.891545271918898  0.39220296416016315  0.425541289580747  1.0000
  C   C1291     1.0  0.9020071786776669  0.24875401313481857  0.33926408324074087  1.0000
  C   C1292     1.0  0.9037880740998875  0.24389363526018332  0.36856617566333433  1.0000
  C   C1293     1.0  0.9357622060227453  0.24239039644924712  0.3810225307417648  1.0000
  C   C1294     1.0  0.9642184530020943  0.2440359289814558  0.36419162239174274  1.0000
  C   C1295     1.0  0.961264076375246  0.2437277722736425  0.3349276616683689  1.0000
  C   C1296     1.0  0.9303582084087865  0.24811755786075182  0.3227763601836959  1.0000
  C   C1297     1.0  0.8697664097545235  0.2454396313882233  0.3866067062497142  1.0000
  C   C1298     1.0  0.8405792836901818  0.21298723136157446  0.3743410096673822  1.0000
  C   C1299     1.0  0.8480967037817853  0.17078654946123137  0.3608254407217382  1.0000
  C   C1300     1.0  0.8235077312919391  0.14142132972429652  0.34989435361209525  1.0000
  C   C1301     1.0  0.7902328677944674  0.15148538235062087  0.3550760278505035  1.0000
  C   C1302     1.0  0.7823798295353683  0.1919925239051995  0.3697482583391446  1.0000
  C   C1303     1.0  0.8071686281591747  0.22147977713734132  0.37919220917921986  1.0000
  C   C1304     1.0  0.8589899749225458  0.25034587064555475  0.4392348064560828  1.0000
  C   C1305     1.0  0.8664407185194738  0.24100913160936002  0.46654345838058053  1.0000
  C   C1306     1.0  0.8857034854210161  0.20245061145747503  0.4726614776776056  1.0000
  C   C1307     1.0  0.8966617601470105  0.17438562233858604  0.450276051807916  1.0000
  C   C1308     1.0  0.8893561547526837  0.18474374611892902  0.42298011044982486  1.0000
  C   C1309     1.0  0.8728947750802001  0.22542101186883612  0.41700614423874083  1.0000
  C   C1310     1.0  0.9006683091448434  0.19897872638430097  0.503808720656885  1.0000
  C   C1311     1.0  0.9850263397891642  0.29874869010055427  0.502325821242786  1.0000
  C   C1312     1.0  0.9529241926211409  0.3112456787350448  0.5103059385183724  1.0000
  C   C1313     1.0  0.927403217330127  0.2800735386928382  0.5087488941335686  1.0000
  C   C1314     1.0  0.932155990271245  0.23377025478057817  0.5013386339185432  1.0000
  C   C1315     1.0  0.9638164006498341  0.22252178510809195  0.4909816407249298  1.0000
  C   C1316     1.0  0.9903813704172519  0.2536207169871561  0.49212135484605146  1.0000
  C   C1317     1.0  0.9093734753314128  0.14781289721508292  0.5136700017606424  1.0000
  C   C1318     1.0  0.887202497930701  0.11205079335029085  0.507882457190188  1.0000
  C   C1319     1.0  0.8906433925561728  0.0699482558907505  0.5204913390654972  1.0000
  C   C1320     1.0  0.9144894908677176  0.06340803623505867  0.5404956521616907  1.0000
  C   C1321     1.0  0.9365918148786672  0.09828070585450635  0.5467153559899683  1.0000
  C   C1322     1.0  0.9344545291164305  0.13963317618055446  0.5334794195052688  1.0000
  C   C1323     1.0  0.8908859945665828  0.22650714162012378  0.5565702818105225  1.0000
  C   C1324     1.0  0.8715229448888075  0.24450135355773503  0.5781888368403494  1.0000
  C   C1325     1.0  0.8381723988076626  0.25212125280006215  0.573810046713289  1.0000
  C   C1326     1.0  0.8234534364626596  0.23358137846976162  0.5495582860095692  1.0000
  C   C1327     1.0  0.8427553252539011  0.2134438346207089  0.5286642332649163  1.0000
  C   C1328     1.0  0.8771566569447048  0.21404608982492215  0.5302466987825333  1.0000
  H   H953      1.0  0.877810984059481  0.25034233305455966  0.32917613036939974  1.0000
  H   H954      1.0  0.9400081767373459  0.2440945739009551  0.4033528774903592  1.0000
  H   H955      1.0  0.988701963179228  0.2411348729017836  0.37337076976501465  1.0000
  H   H956      1.0  0.9279461908662623  0.2476940555766386  0.2999058143628226  1.0000
  H   H957      1.0  0.8740526172675435  0.16016224056261588  0.3576901676747864  1.0000
  H   H958      1.0  0.8314738963320947  0.108829045479694  0.3400669673520887  1.0000
  H   H959      1.0  0.7565128846730608  0.2031735078592787  0.3727415967278898  1.0000
  H   H960      1.0  0.8010352650395167  0.2531150984710192  0.39084144329083365  1.0000
  H   H961      1.0  0.8445318756587117  0.2818046771568522  0.43612495454194405  1.0000
  H   H962      1.0  0.8593365041980012  0.26635239041723086  0.4827917991036352  1.0000
  H   H963      1.0  0.9124291141020511  0.14539324620228114  0.45526918597796034  1.0000
  H   H964      1.0  0.8981886213859218  0.16225360190426114  0.40583567479510757  1.0000
  H   H965      1.0  0.9469796750419661  0.3458384648270317  0.5185254381279489  1.0000
  H   H966      1.0  0.9032388329528789  0.29394383499609805  0.5144580568778492  1.0000
  H   H967      1.0  0.9682292505812307  0.18757482409804685  0.48222617889854325  1.0000
  H   H968      1.0  0.01498864003067868  0.24135766548571647  0.485554228869328  1.0000
  H   H969      1.0  0.866309729034044  0.11798870296922406  0.493746188918357  1.0000
  H   H970      1.0  0.8725568874240773  0.04280301435335532  0.5157058108134267  1.0000
  H   H971      1.0  0.9558296902717469  0.09387932232434582  0.5624955241837145  1.0000
  H   H972      1.0  0.9522112522128245  0.16605103630088067  0.5400613744761332  1.0000
  H   H973      1.0  0.9175220818229628  0.227004934402433  0.5601673721035794  1.0000
  H   H974      1.0  0.883735623948081  0.2584647550298288  0.5968839615966671  1.0000
  H   H975      1.0  0.7969577939337062  0.23822432182007006  0.5459167087340894  1.0000
  H   H976      1.0  0.8312607466547811  0.20098947968225986  0.5092191850906114  1.0000
  C   C1329     1.0  0.8610404825700009  0.6543721412363394  0.5022495578443468  1.0000
  C   C1330     1.0  0.8650461356369514  0.6796037148091353  0.4780020339960959  1.0000
  C   C1331     1.0  0.8412043990676106  0.7104464733181871  0.4701469039568408  1.0000
  C   C1332     1.0  0.8108551422260876  0.7138452544823211  0.4839421053634291  1.0000
  C   C1333     1.0  0.8055005154238299  0.6848200419151858  0.5065139528737481  1.0000
  C   C1334     1.0  0.8303597493522027  0.6572722239694213  0.5160235749735906  1.0000
  H   H977      1.0  0.8870912820359057  0.6776399278137353  0.4646665314078783  1.0000
  H   H978      1.0  0.8469469440445123  0.7309805837653776  0.452032228399756  1.0000
  H   H979      1.0  0.7816262978286175  0.6843753364435904  0.5175912114970667  1.0000
  H   H980      1.0  0.8235842619292236  0.6367531190736024  0.5340153817220787  1.0000
  C   C1335     1.0  0.7541974954367404  0.6759647152369183  0.4535807990736221  1.0000
  C   C1336     1.0  0.7494492538137248  0.718371977383591  0.468272095411873  1.0000
  C   C1337     1.0  0.7177913230399925  0.7379130731970515  0.4683992010759386  1.0000
  C   C1338     1.0  0.6926013452485168  0.7179077680005125  0.45354478580213686  1.0000
  C   C1339     1.0  0.6988753687406053  0.681014015670858  0.4355932291806029  1.0000
  C   C1340     1.0  0.7295781196475294  0.6586334009085179  0.43627536291108837  1.0000
  C   C1341     1.0  0.7814745027289696  0.7483598234466105  0.4757247241815869  1.0000
  C   C1342     1.0  0.783586504898487  0.7785434117341391  0.44746489820433144  1.0000
  C   C1343     1.0  0.7727913760223294  0.824864955015629  0.44816186092895793  1.0000
  C   C1344     1.0  0.7699130041107993  0.8500003612764616  0.42401390318422516  1.0000
  C   C1345     1.0  0.777880681974187  0.8301414976857264  0.3982495850781247  1.0000
  C   C1346     1.0  0.788258950532222  0.7840440332411757  0.3967073696874619  1.0000
  C   C1347     1.0  0.7908669633393364  0.7589008860111176  0.42098455152399467  1.0000
  C   C1348     1.0  0.753126002640529  0.7877354905511385  0.5207561425323005  1.0000
  C   C1349     1.0  0.7504747547821564  0.8270636266802746  0.5378688017710014  1.0000
  C   C1350     1.0  0.7750322126149383  0.8608737607178654  0.5389364893491525  1.0000
  C   C1351     1.0  0.8046228659506668  0.8503854734113724  0.5251391695148299  1.0000
  C   C1352     1.0  0.8079615881207823  0.8112384150595295  0.5080286287038634  1.0000
  C   C1353     1.0  0.7811195016208552  0.7811013112785241  0.5037133914088358  1.0000
  C   C1354     1.0  0.7666582951148778  0.9129122376512383  0.5510327117127304  1.0000
  C   C1355     1.0  0.7147913881694643  0.9564500605558063  0.4737312836834912  1.0000
  C   C1356     1.0  0.6967856477917959  0.9423983446847016  0.49661877692623985  1.0000
  C   C1357     1.0  0.7124637036888893  0.9328453838347708  0.5212984600323138  1.0000
  C   C1358     1.0  0.7470322621985899  0.9319621349318283  0.523715586077295  1.0000
  C   C1359     1.0  0.7644925288643061  0.9427423498760269  0.4995909310376409  1.0000
  C   C1360     1.0  0.7491916469520097  0.9555383524925357  0.47511673542180644  1.0000
  C   C1361     1.0  0.798059982539236  0.9436339024611679  0.5593475405703562  1.0000
  C   C1362     1.0  0.8244920519930212  0.9237773754652153  0.5732190053753838  1.0000
  C   C1363     1.0  0.8528083870236943  0.9487982233685802  0.5797861313521073  1.0000
  C   C1364     1.0  0.854576183618736  0.9954664093521872  0.5737592044476626  1.0000
  C   C1365     1.0  0.8282216763776048  0.015737984400653104  0.5607795977188288  1.0000
  C   C1366     1.0  0.7997242793273217  0.9908403908340269  0.5546064993007086  1.0000
  C   C1367     1.0  0.7244530940356958  0.9461235595662585  0.5889906998581924  1.0000
  C   C1368     1.0  0.704108196557213  0.9405956455242539  0.6118887852396132  1.0000
  C   C1369     1.0  0.7072159160551665  0.902197006438595  0.6284739559724418  1.0000
  C   C1370     1.0  0.7303784309363701  0.8688404769706556  0.6213179070855476  1.0000
  C   C1371     1.0  0.7510916856598151  0.873833054989427  0.5987969018408548  1.0000
  C   C1372     1.0  0.7467272493111925  0.9106395401551272  0.5805763048970486  1.0000
  H   H981      1.0  0.7783595642682261  0.6597910038171357  0.45101961994269985  1.0000
  H   H982      1.0  0.712875826235971  0.7727143339351935  0.47578192173041645  1.0000
  H   H983      1.0  0.6696301155520966  0.737748443431248  0.4508395535852736  1.0000
  H   H984      1.0  0.7376541622134795  0.6334068975664894  0.4206053529595323  1.0000
  H   H985      1.0  0.7639837549034695  0.8417452338854523  0.4673887110466169  1.0000
  H   H986      1.0  0.764494865931563  0.8860885809109237  0.42650517419991124  1.0000
  H   H987      1.0  0.7956400546406087  0.7680193915665638  0.3766691617475174  1.0000
  H   H988      1.0  0.7988344530594452  0.7229094449502845  0.41964358676810243  1.0000
  H   H989      1.0  0.7327988413756532  0.7639955226411964  0.520158745911192  1.0000
  H   H990      1.0  0.7268773430668589  0.8338809093376921  0.5481156367224245  1.0000
  H   H991      1.0  0.8256229924998951  0.8732550991601642  0.5254399862531185  1.0000
  H   H992      1.0  0.8310701311851861  0.8057570640145664  0.49653403981686284  1.0000
  H   H993      1.0  0.6699301066737576  0.9397949578541308  0.4955976947582461  1.0000
  H   H994      1.0  0.69670765106642  0.9224675020238053  0.5384810273862508  1.0000
  H   H995      1.0  0.7915124464901091  0.9394902305655226  0.4989045604516865  1.0000
  H   H996      1.0  0.76454845448221  0.9630232364234628  0.4569702834487052  1.0000
  H   H997      1.0  0.8231667861196901  0.8875698018913414  0.57798334935011  1.0000
  H   H998      1.0  0.8730183366141824  0.9322048437076503  0.5910815880320718  1.0000
  H   H999      1.0  0.82951675331187  0.052921414751606936  0.5581887605996246  1.0000
  H   H1000     1.0  0.7785847581776398  0.008667101567273905  0.545448536204781  1.0000
  H   H1001     1.0  0.7206755155088682  0.9768414325862622  0.576996162025867  1.0000
  H   H1002     1.0  0.6847182061777791  0.9656644039650579  0.617201801997556  1.0000
  H   H1003     1.0  0.7331614296399387  0.8377077370659936  0.633297615923732  1.0000
  H   H1004     1.0  0.7695844553546791  0.8468896056220632  0.594163900385663  1.0000
  C   C1373     1.0  0.7606634139958081  0.758297153655281  0.1899780571101271  1.0000
  C   C1374     1.0  0.7430532089882707  0.7979378826666098  0.19776285534859925  1.0000
  C   C1375     1.0  0.7562249714300896  0.829832348077895  0.2172828958647029  1.0000
  C   C1376     1.0  0.7868838758275821  0.8223646852035127  0.23040443725174342  1.0000
  C   C1377     1.0  0.804585694192796  0.7826595537570242  0.22178243637262576  1.0000
  C   C1378     1.0  0.7919980416055425  0.7519357373989748  0.20134278637700737  1.0000
  H   H1005     1.0  0.7188620357370247  0.8034596842066408  0.18805388919894714  1.0000
  H   H1006     1.0  0.7425804214935182  0.8604706952919687  0.22392840366760022  1.0000
  H   H1007     1.0  0.8293786812996  0.7756062075365353  0.2298133959138383  1.0000
  H   H1008     1.0  0.8076392262406001  0.7223608405380552  0.19590245211222554  1.0000
  C   C1379     1.0  0.8180040893967179  0.7947579692922733  0.2922413428196659  1.0000
  C   C1380     1.0  0.8260302827338553  0.8341427463907954  0.27735515112984777  1.0000
  C   C1381     1.0  0.85361580013383  0.8593886963853427  0.28680969410859525  1.0000
  C   C1382     1.0  0.8711294207365268  0.8486993199139191  0.3104322817751901  1.0000
  C   C1383     1.0  0.8617007859078195  0.8116650930658764  0.3259285806525232  1.0000
  C   C1384     1.0  0.8350177465537655  0.7842632966451455  0.3168786573710513  1.0000
  C   C1385     1.0  0.8015911498843166  0.8575222172155994  0.25447825002577124  1.0000
  C   C1386     1.0  0.774551396926172  0.8804523363462674  0.2763467795282606  1.0000
  C   C1387     1.0  0.7839636988237116  0.9178545295746513  0.2938682953197058  1.0000
  C   C1388     1.0  0.7716590299786381  0.9241486832631617  0.32061132703911155  1.0000
  C   C1389     1.0  0.7496296090593844  0.8914910104706804  0.33039634474442964  1.0000
  C   C1390     1.0  0.7356850059028635  0.8586448059071922  0.3121524450955448  1.0000
  C   C1391     1.0  0.7470384168048059  0.8543101932212864  0.28453873957728953  1.0000
  C   C1392     1.0  0.8501483907749243  0.8848658497332367  0.22418049656799705  1.0000
  C   C1393     1.0  0.866399455606523  0.9155632769555359  0.20819272245627687  1.0000
  C   C1394     1.0  0.8507502561618911  0.9545369147689925  0.19766307740230776  1.0000
  C   C1395     1.0  0.8183946498900426  0.9626028732002943  0.20643866429217136  1.0000
  C   C1396     1.0  0.8027353835684731  0.9336395923921773  0.2250659993609875  1.0000
  C   C1397     1.0  0.8186749176097112  0.8942005103747328  0.23466883228114485  1.0000
  C   C1398     1.0  0.8716700694306909  0.9898937651536874  0.17896774080321654  1.0000
  C   C1399     1.0  0.9033237754803327  0.04737149197377222  0.2599670962856714  1.0000
  C   C1400     1.0  0.926682673746954  0.026794455360574787  0.24290951616806566  1.0000
  C   C1401     1.0  0.917616530852383  0.010799290656566596  0.2168655656010208  1.0000
  C   C1402     1.0  0.8866867194598027  0.020700290567911006  0.20521188279116473  1.0000
  C   C1403     1.0  0.8672163676175977  0.053191264255144546  0.2200389703471924  1.0000
  C   C1404     1.0  0.8746259796976193  0.06404725854415919  0.2477247024084181  1.0000
  C   C1405     1.0  0.8526779325714567  0.018581462501428225  0.15676132207708607  1.0000
  C   C1406     1.0  0.8239252118944643  0.0030042981976945438  0.14345971433261928  1.0000
  C   C1407     1.0  0.8097006568578209  0.027567286412190084  0.12277030170711196  1.0000
  C   C1408     1.0  0.824613908519073  0.0667340955199584  0.1128533059539391  1.0000
  C   C1409     1.0  0.8535229842696296  0.08307152809567653  0.12581638894644448  1.0000
  C   C1410     1.0  0.8676401120499536  0.059016541034699804  0.14719450242841398  1.0000
  C   C1411     1.0  0.9308405017379681  0.9774125504279964  0.15624675598039378  1.0000
  C   C1412     1.0  0.9568454993720473  0.9459933579443254  0.1518308933679808  1.0000
  C   C1413     1.0  0.9505282039900839  0.8996368121095866  0.14508984447426082  1.0000
  C   C1414     1.0  0.9176878514921218  0.8870123213315313  0.14113135040971062  1.0000
  C   C1415     1.0  0.8921428860983727  0.9181395291596269  0.14759234315693937  1.0000
  C   C1416     1.0  0.8984762637423539  0.9618872194026659  0.15887403005663006  1.0000
  H   H1009     1.0  0.7955169171416677  0.7761798750849517  0.2865618380636673  1.0000
  H   H1010     1.0  0.8608609799081387  0.8923047566920177  0.2784249571357334  1.0000
  H   H1011     1.0  0.890290219522149  0.8717687925115073  0.3183318987968682  1.0000
  H   H1012     1.0  0.8274360198443094  0.7539610815783289  0.3283224039924257  1.0000
  H   H1013     1.0  0.8064630555812216  0.9372178970580046  0.2896971111106192  1.0000
  H   H1014     1.0  0.7841821747214263  0.9486629448760131  0.3346332002132835  1.0000
  H   H1015     1.0  0.7195078029644348  0.833031537385236  0.3216514750567152  1.0000
  H   H1016     1.0  0.7386994703487865  0.8236941187849547  0.27217347689143945  1.0000
  H   H1017     1.0  0.8640122264282034  0.8547393594177073  0.23071160927323534  1.0000
  H   H1018     1.0  0.8919932322723121  0.9063239406569031  0.20275387109090914  1.0000
  H   H1019     1.0  0.8060717775387523  0.9940236821025489  0.19953619120508806  1.0000
  H   H1020     1.0  0.7782126895153264  0.9430949127115281  0.2329105372615705  1.0000
  H   H1021     1.0  0.9498982166481854  0.016474721684654137  0.2519933342932884  1.0000
  H   H1022     1.0  0.9347731605987383  0.9861780343373143  0.20766523395040457  1.0000
  H   H1023     1.0  0.8430308948464553  0.06249791281341345  0.21200377395051095  1.0000
  H   H1024     1.0  0.856588139240965  0.08485430895448358  0.25975313508449427  1.0000
  H   H1025     1.0  0.8125339802964374  0.9699140192710684  0.14827447688742484  1.0000
  H   H1026     1.0  0.7877110280028645  0.012925415374278382  0.11316090166097789  1.0000
  H   H1027     1.0  0.8654876057353128  0.11458111406320486  0.11993330328516741  1.0000
  H   H1028     1.0  0.8899762479656949  0.07278300644876654  0.15726741446284065  1.0000
  H   H1029     1.0  0.9374870294070121  0.013283736675830493  0.16053106423049882  1.0000
  H   H1030     1.0  0.9818600998924442  0.9602022764107472  0.15420692191491406  1.0000
  H   H1031     1.0  0.9105217411896704  0.8513727772858676  0.13608716213126662  1.0000
  H   H1032     1.0  0.8667805971142469  0.9078202382347825  0.1441689639381054  1.0000
  C   C1417     1.0  0.6629170015798926  0.8966189902688305  0.4339789872469696  1.0000
  C   C1418     1.0  0.671143367467742  0.8549256528186401  0.4459311565246064  1.0000
  C   C1419     1.0  0.6467619460937355  0.8281946974612513  0.4581121159975613  1.0000
  C   C1420     1.0  0.6140148269897898  0.8429918514171283  0.45961619968900447  1.0000
  C   C1421     1.0  0.6055819499576425  0.8820971900276708  0.444708823721842  1.0000
  C   C1422     1.0  0.6294799117676724  0.9089764765183139  0.4327185227449855  1.0000
  H   H1033     1.0  0.6969144223905683  0.8452656782861794  0.44872536270631547  1.0000
  H   H1034     1.0  0.6556702502826391  0.7994471546332149  0.4701892725115293  1.0000
  H   H1035     1.0  0.5800540753672714  0.8935728035149803  0.4434928462022809  1.0000
  H   H1036     1.0  0.6217619101768511  0.9405278494719903  0.4228699522076347  1.0000
  C   C1423     1.0  0.6020148865301129  0.8981840436123152  0.5112380467215202  1.0000
  C   C1424     1.0  0.5783479012805036  0.8641086633853778  0.5046243153346393  1.0000
  C   C1425     1.0  0.5490798781533238  0.8649736298502165  0.520162982766661  1.0000
  C   C1426     1.0  0.5432764442072188  0.8998380550392695  0.5408007057554483  1.0000
  C   C1427     1.0  0.5667813660172443  0.9346131124077001  0.5461073672301877  1.0000
  C   C1428     1.0  0.5958208327388692  0.9331388221572555  0.5304903179719923  1.0000
  C   C1429     1.0  0.5862165801038607  0.8225596773057007  0.4821181390840874  1.0000
  C   C1430     1.0  0.5955895026041639  0.7824423939259117  0.5032282714576519  1.0000
  C   C1431     1.0  0.5734316967898176  0.7476260720494653  0.5105940446902544  1.0000
  C   C1432     1.0  0.5820231927325028  0.7167649928194745  0.5310919514485696  1.0000
  C   C1433     1.0  0.6105510399463995  0.7222017425665009  0.5466751058630142  1.0000
  C   C1434     1.0  0.6335998339846982  0.7543641952418789  0.5383242637339032  1.0000
  C   C1435     1.0  0.6256507953315955  0.7846255207158946  0.517438684700188  1.0000
  C   C1436     1.0  0.527942878006985  0.8277938940862234  0.45780918083153826  1.0000
  C   C1437     1.0  0.013278038056953712  0.8205368543594554  0.4593980016323585  1.0000
  C   C1438     1.0  0.011111284452466563  0.7757331148220821  0.4471386603332297  1.0000
  C   C1439     1.0  0.5405924663615879  0.7506730332288999  0.42425116709048105  1.0000
  C   C1440     1.0  0.5644743083484295  0.7670286820497417  0.44269631737413645  1.0000
  C   C1441     1.0  0.5580230206716855  0.8047982227947046  0.46069447940582775  1.0000
  C   C1442     1.0  0.976932192577719  0.7526390545500825  0.43741507703221005  1.0000
  C   C1443     1.0  0.9424243081251918  0.6685929663349897  0.5071304153444663  1.0000
  C   C1444     1.0  0.9401603066514456  0.7162060660311276  0.508344274436293  1.0000
  C   C1445     1.0  0.953586764775467  0.7421014179206719  0.4874968271017975  1.0000
  C   C1446     1.0  0.9674068328159847  0.7204379850460415  0.4634420801773795  1.0000
  C   C1447     1.0  0.971681186345234  0.6724691925765179  0.46323235583167127  1.0000
  C   C1448     1.0  0.9588989290155321  0.6467911648870881  0.4844759491525046  1.0000
  C   C1449     1.0  0.9766335878687223  0.722271752510518  0.40798376051781654  1.0000
  C   C1450     1.0  0.9986370605987498  0.7314704370132751  0.3857932299996943  1.0000
  C   C1451     1.0  0.9912098993222737  0.7184962602047995  0.35814986649315705  1.0000
  C   C1452     1.0  0.9615854509725131  0.6965201471459821  0.3516441749207319  1.0000
  C   C1453     1.0  0.9408356394785116  0.684284068868734  0.37341737517517204  1.0000
  C   C1454     1.0  0.9483546488888897  0.6954225635458092  0.4011009888086634  1.0000
  C   C1455     1.0  0.9150146461358621  0.7839760811214562  0.43523733332121917  1.0000
  C   C1456     1.0  0.8910516326321296  0.8094883036899144  0.42224289759824424  1.0000
  C   C1457     1.0  0.8996245896434765  0.838235910193076  0.4007069612500599  1.0000
  C   C1458     1.0  0.9325610711331395  0.848800328206661  0.3965209480468323  1.0000
  C   C1459     1.0  0.956746236781275  0.8249761390197169  0.4103902944241255  1.0000
  C   C1460     1.0  0.9486633629226686  0.7906331543687599  0.4295451179988139  1.0000
  H   H1037     1.0  0.6262176829193181  0.8964587626601861  0.5012157651099464  1.0000
  H   H1038     1.0  0.5309393091073278  0.8377336779193651  0.516898485627909  1.0000
  H   H1039     1.0  0.5196678438423047  0.9000410527855397  0.552176662689321  1.0000
  H   H1040     1.0  0.6130527458646258  0.9610830299273188  0.5331256420736195  1.0000
  H   H1041     1.0  0.5490131420708476  0.745189903402478  0.5015716609693301  1.0000
  H   H1042     1.0  0.563707283759971  0.6911846795820703  0.5360405986361909  1.0000
  H   H1043     1.0  0.657090665260762  0.7582890751822986  0.5495116805994118  1.0000
  H   H1044     1.0  0.6434967698503953  0.8120526588799629  0.5141381742899507  1.0000
  H   H1045     1.0  0.5227849568141736  0.8596261757716953  0.4692614011638503  1.0000
  H   H1046     1.0  0.9924793605901469  0.84383421416863  0.4599826876870603  1.0000
  H   H1047     1.0  0.5467795833373211  0.7190399971435995  0.41187107541048995  1.0000
  H   H1048     1.0  0.5874123256340666  0.7471984743997184  0.4443105593077698  1.0000
  H   H1049     1.0  0.927119034356769  0.7338877778519683  0.525626407893748  1.0000
  H   H1050     1.0  0.9504859052564143  0.7791058478282128  0.48964279439677194  1.0000
  H   H1051     1.0  0.9844069347936011  0.6534291280364928  0.44658363226680986  1.0000
  H   H1052     1.0  0.9621839309503589  0.6095647837858382  0.4832197215059895  1.0000
  H   H1053     1.0  0.5287077236945071  0.7700877086817152  0.36861278107349177  1.0000
  H   H1054     1.0  0.007921014483794675  0.7286072560220603  0.34164519601423676  1.0000
  H   H1055     1.0  0.9180834454513631  0.6649526139534635  0.36872293931568195  1.0000
  H   H1056     1.0  0.9297193214808716  0.6891321253148341  0.41700614423874083  1.0000
  H   H1057     1.0  0.9073188280878915  0.75544190042369  0.4480644132531743  1.0000
  H   H1058     1.0  0.8650821343332668  0.7991478242724727  0.4244164044537663  1.0000
  H   H1059     1.0  0.9391397180297704  0.870703402758144  0.37908628779249853  1.0000
  H   H1060     1.0  0.9821614140759469  0.8326433642560883  0.40544376566423856  1.0000
  C   C1461     1.0  0.942866637913974  0.9691356011567365  0.3010434100562099  1.0000
  C   C1462     1.0  0.9402292073170125  0.9343102592481446  0.28085903060258993  1.0000
  C   C1463     1.0  0.9685479045822923  0.9127965277174724  0.26997666733083875  1.0000
  C   C1464     1.0  0.5532945625499879  0.9393692758825752  0.2483750597228872  1.0000
  C   C1465     1.0  0.5557858633074083  0.9619342597159972  0.27461602406923374  1.0000
  C   C1466     1.0  0.9726386873272558  0.9759157463674518  0.3141522408768438  1.0000
  H   H1061     1.0  0.9166259210761322  0.9281334420574887  0.26981354839528787  1.0000
  H   H1062     1.0  0.9655907546478528  0.8915107652525054  0.2511989238928783  1.0000
  H   H1063     1.0  0.5793255660665653  0.959899413916304  0.2859919810031064  1.0000
  H   H1064     1.0  0.9741126052668311  0.003097158352282081  0.3304556607209936  1.0000
  C   C1467     1.0  0.5908335604608685  0.9796800243500168  0.2007466608125396  1.0000
  C   C1468     1.0  0.6033665265926375  0.9579093916845186  0.22378858743712807  1.0000
  C   C1469     1.0  0.6302550843640746  0.979403984516921  0.2379820532577886  1.0000
  C   C1470     1.0  0.6469826169612175  0.015676963439169578  0.22679887324774872  1.0000
  C   C1471     1.0  0.635221119561021  0.0346355879476965  0.2026672273965711  1.0000
  C   C1472     1.0  0.6060603790015882  0.018303046340240714  0.190599603807408  1.0000
  C   C1473     1.0  0.5843804371409297  0.9125630765257194  0.2342409098787906  1.0000
  C   C1474     1.0  0.5752229746531372  0.8716545298828046  0.21144493271416914  1.0000
  C   C1475     1.0  0.5943714512489539  0.8612894859026131  0.18763528787862438  1.0000
  C   C1476     1.0  0.5899777074333357  0.8199930079444147  0.1723008368802015  1.0000
  C   C1477     1.0  0.5661785731526864  0.7891070670076012  0.18027184491652976  1.0000
  C   C1478     1.0  0.5443346231329615  0.8019079309168061  0.20145336830474445  1.0000
  C   C1479     1.0  0.5495296139296271  0.841532903953366  0.2172045140385291  1.0000
  C   C1480     1.0  0.6396619443618532  0.872733483831689  0.2481949933654609  1.0000
  C   C1481     1.0  0.6563155372657762  0.8350810233675676  0.2590604092153367  1.0000
  C   C1482     1.0  0.6392822888665698  0.8049720662235682  0.27672809652045743  1.0000
  C   C1483     1.0  0.6101122583670383  0.8226112560160667  0.28911878033912064  1.0000
  C   C1484     1.0  0.5935913778252676  0.8603123094009952  0.27810507454783495  1.0000
  C   C1485     1.0  0.6067614703126172  0.8828391684248991  0.2553023184144633  1.0000
  C   C1486     1.0  0.645570592684524  0.7489116176112088  0.2773932828290675  1.0000
  C   C1487     1.0  0.7029324752432141  0.6912796806248432  0.2053949149474192  1.0000
  C   C1488     1.0  0.7046712800273067  0.6717514620331669  0.23137044029864207  1.0000
  C   C1489     1.0  0.684457404524456  0.6862057482588512  0.2537219713245808  1.0000
  C   C1490     1.0  0.664831417422289  0.7252284584618662  0.25171370183234404  1.0000
  C   C1491     1.0  0.6611214972628784  0.74124827620698  0.22471434035707263  1.0000
  C   C1492     1.0  0.67897863481177  0.7241060007990712  0.20190141577057574  1.0000
  C   C1493     1.0  0.6121855231475876  0.7190942513947755  0.27357799447936454  1.0000
  C   C1494     1.0  0.587754097924451  0.7363304542710438  0.2562937425941751  1.0000
  C   C1495     1.0  0.5567140783528585  0.7182429485403987  0.25752454910787714  1.0000
  C   C1496     1.0  0.5500712954007834  0.6791785081747059  0.27190443656916724  1.0000
  C   C1497     1.0  0.5759206381850492  0.6567977955373817  0.2848098983272962  1.0000
  C   C1498     1.0  0.6072409112097396  0.6756878587896323  0.28536916324918493  1.0000
  C   C1499     1.0  0.6394847685639832  0.7406184342769581  0.33212498177572203  1.0000
  C   C1500     1.0  0.6517389970424885  0.7318026550755247  0.35831934071191124  1.0000
  C   C1501     1.0  0.6857809346475691  0.7281870463577168  0.36240366938388635  1.0000
  C   C1502     1.0  0.7070562860238284  0.7345046775766445  0.3399356248325542  1.0000
  C   C1503     1.0  0.6945359339812611  0.7409653774867481  0.3131820009744763  1.0000
  C   C1504     1.0  0.6603765824072966  0.7429439719699036  0.30834351202904514  1.0000
  H   H1065     1.0  0.5683230302110375  0.9663202269174496  0.1911648003269531  1.0000
  H   H1066     1.0  0.6393734877015315  0.9680057526853495  0.2582808278090676  1.0000
  H   H1067     1.0  0.6689557814745886  0.029238045492985254  0.23731474852144413  1.0000
  H   H1068     1.0  0.5955456207548597  0.0330234078772631  0.17186888946515183  1.0000
  H   H1069     1.0  0.6153342723194649  0.8836584094004382  0.18256080608357805  1.0000
  H   H1070     1.0  0.6062594474802339  0.8116230279975545  0.1546214982225414  1.0000
  H   H1071     1.0  0.5250775351866106  0.7776086709527478  0.20793639270041123  1.0000
  H   H1072     1.0  0.5343868007960899  0.8468091800628328  0.23583608596281408  1.0000
  H   H1073     1.0  0.65131387948819  0.8916532923649652  0.23183861282795043  1.0000
  H   H1074     1.0  0.680209005825786  0.8249677172227101  0.24997447266237954  1.0000
  H   H1075     1.0  0.5972442807818519  0.8037260782103116  0.3056170955348377  1.0000
  H   H1076     1.0  0.5690014266001955  0.8699915307530304  0.28546449249723416  1.0000
  H   H1077     1.0  0.7234975733894299  0.6448861994083271  0.2350670966952171  1.0000
  H   H1078     1.0  0.6857126671262479  0.6674219008934016  0.27313947993833815  1.0000
  H   H1079     1.0  0.6452838701067259  0.7704080450452824  0.2211108947808124  1.0000
  H   H1080     1.0  0.6757143657151732  0.7412425445541933  0.18202399649567425  1.0000
  H   H1081     1.0  0.5932595771182204  0.7662860473812011  0.24386069022082335  1.0000
  H   H1082     1.0  0.9876032602903684  0.715380546913103  0.2654961926725258  1.0000
  H   H1083     1.0  0.5719873512417459  0.6251855381879886  0.29585961739006716  1.0000
  H   H1084     1.0  0.6266979222715974  0.6588139154285187  0.2970565290600184  1.0000
  H   H1085     1.0  0.6128830553209612  0.7443947575478492  0.3303094892073181  1.0000
  H   H1086     1.0  0.6337755676938013  0.7293294538172995  0.37537480240178256  1.0000
  H   H1087     1.0  0.7335653314178513  0.7366013546161476  0.3424417248423812  1.0000
  H   H1088     1.0  0.7116772990149656  0.7444944123119059  0.2955715112181851  1.0000
  C   C1505     1.0  0.9478111488654711  0.6892326800853973  0.3209418017656822  1.0000
  C   C1506     1.0  0.9670425992294893  0.6524716226137338  0.3014713324585641  1.0000
  H   H1089     1.0  0.9208862046756154  0.6793731814737826  0.32087401207818056  1.0000
  H   H1090     1.0  0.9474166806766281  0.7227598455838238  0.3102712812673737  1.0000
  H   H1091     1.0  0.9538446618511922  0.6479360534015965  0.2811534920576753  1.0000
  H   H1092     1.0  0.9669391743417013  0.6180085277185513  0.31054667687284915  1.0000
  C   C1507     1.0  0.7454465336768137  0.7231598870740873  0.16843830759202083  1.0000
  C   C1508     1.0  0.7299695351657076  0.6816625941875376  0.18267032879744793  1.0000
  H   H1093     1.0  0.7257654009162778  0.7396924272715762  0.15514305513075732  1.0000
  H   H1094     1.0  0.7651534681251413  0.7119380456447443  0.15291107966976508  1.0000
  H   H1095     1.0  0.7505873647740958  0.664278443659704  0.19351371299888567  1.0000
  H   H1096     1.0  0.7209767816975563  0.6563809032319929  0.16628301921501484  1.0000
  C   C1509     1.0  0.9125535654387351  0.0024702516605181746  0.3075236804958219  1.0000
  C   C1510     1.0  0.9106947839237689  0.04971400594708876  0.2918833285325478  1.0000
  H   H1097     1.0  0.9117921851886737  0.012016672910761361  0.330298897068646  1.0000
  H   H1098     1.0  0.8891647983084453  0.9824828688022611  0.3044689077027783  1.0000
  H   H1099     1.0  0.9340148065244903  0.06898356583465284  0.29518172051505054  1.0000
  H   H1100     1.0  0.8906804562500119  0.07080339241312573  0.30221066373787914  1.0000
  C   C1511     1.0  0.8804322035571881  0.8034034873588973  0.3538134449207851  1.0000
  C   C1512     1.0  0.8760336977228301  0.8452783933027564  0.37549343435491045  1.0000
  H   H1101     1.0  0.871668979058658  0.7718156331524606  0.36457293938393953  1.0000
  H   H1102     1.0  0.9070222191726559  0.7967363374224814  0.34881607389527197  1.0000
  H   H1103     1.0  0.8820104407450136  0.8784130117069107  0.36542031047771034  1.0000
  H   H1104     1.0  0.8503856574588231  0.8472922244866504  0.38325323514611637  1.0000
  C   C1513     1.0  0.6825811341635443  0.6809023299846977  0.40720629753928184  1.0000
  C   C1514     1.0  0.7000375621004041  0.7194853902870111  0.3906931533494237  1.0000
  H   H1105     1.0  0.6863957836733197  0.6470355526640733  0.3956396821093107  1.0000
  H   H1106     1.0  0.655100232883819  0.6857312742525307  0.4090620402346398  1.0000
  H   H1107     1.0  0.7269972602308958  0.7110331734616714  0.388540830771246  1.0000
  H   H1108     1.0  0.6999474505388198  0.7527765412376183  0.40317704798840176  1.0000
  C   C1515     1.0  0.6899849170404518  0.9299851225275079  0.4243803911822811  1.0000
  C   C1516     1.0  0.6977986251083915  0.9701955058479363  0.44545874713982914  1.0000
  H   H1109     1.0  0.7131014185645718  0.9100864115743447  0.41961392877982046  1.0000
  H   H1110     1.0  0.6836054634019469  0.9450695322729801  0.40343761459973626  1.0000
  H   H1111     1.0  0.674450405825886  0.9902326705920897  0.44948164140750596  1.0000
  H   H1112     1.0  0.7143598282217479  0.995134435685896  0.4346674762606583  1.0000
  C   C1517     1.0  0.8879696820965043  0.6206424900173326  0.5123248001492813  1.0000
  C   C1518     1.0  0.9204436841121241  0.6406379943595177  0.5258827376496137  1.0000
  H   H1113     1.0  0.8767757152028649  0.5969311833365508  0.5278994808527881  1.0000
  H   H1114     1.0  0.8958719292436793  0.597804596952001  0.4939855712523472  1.0000
  H   H1115     1.0  0.936006805050941  0.6106813444368742  0.5331997870443244  1.0000
  H   H1116     1.0  0.9134396408667423  0.6603650601239671  0.5455438654528302  1.0000
  C   C1519     1.0  0.7812608604883192  0.8583795568208046  0.3712989474407451  1.0000
  C   C1520     1.0  0.7491567131797939  0.8855818901155226  0.36264305171787664  1.0000
  H   H1117     1.0  0.7863992831294826  0.8327170792362633  0.3537901422157064  1.0000
  H   H1118     1.0  0.8038630349252078  0.8800627073026004  0.3726250832024964  1.0000
  H   H1119     1.0  0.7459583891085695  0.9185820525149013  0.3748642613177856  1.0000
  H   H1120     1.0  0.7275306251469239  0.8639871968904831  0.3683331486125474  1.0000
  C   C1521     1.0  0.9130041470500809  0.019566119889542488  0.5570638754726439  1.0000
  C   C1522     1.0  0.8862436407794065  0.023471457946683483  0.5810868459810454  1.0000
  H   H1121     1.0  0.9085626446072524  0.9891276200881215  0.5428810017906555  1.0000
  H   H1122     1.0  0.9371869705839431  0.012222106526475596  0.5668764327385095  1.0000
  H   H1123     1.0  0.8801824183555017  0.06019090501583051  0.5862579280807816  1.0000
  H   H1124     1.0  0.8966260265994834  0.009909052286471098  0.6010339615284096  1.0000
  C   C1523     1.0  0.8069432952453163  0.08632355171273051  0.08670279847185257  1.0000
  C   C1524     1.0  0.8155934033439696  0.1362396702075892  0.07862586904880296  1.0000
  H   H1125     1.0  0.7794941888113818  0.08326036946779886  0.08973405671704408  1.0000
  H   H1126     1.0  0.8125739755241989  0.062369617077798534  0.06858388605929891  1.0000
  H   H1127     1.0  0.8114819074177991  0.13767518105470666  0.055191397765025206  1.0000
  H   H1128     1.0  0.8427825389802697  0.14400849577731514  0.08073751781447973  1.0000
  C   C1525     1.0  0.7617003148790773  0.11786934236692895  0.3464307242663072  1.0000
  C   C1526     1.0  0.7529031364155807  0.11184795850167971  0.3144318733377882  1.0000
  H   H1129     1.0  0.7681537472388478  0.0830790858300437  0.35420323562391964  1.0000
  H   H1130     1.0  0.7387877214792263  0.12579438000577775  0.35843797266503913  1.0000
  H   H1131     1.0  0.732784711618263  0.08659083907135777  0.3123409851639088  1.0000
  H   H1132     1.0  0.774482207946293  0.09432431879050117  0.30423164379652246  1.0000
  C   C1527     1.0  0.5634304438655964  0.7424015990163333  0.16536192683608603  1.0000
  C   C1528     1.0  0.5949357209903225  0.7114802168620785  0.1694627792443897  1.0000
  H   H1133     1.0  0.5414772291784467  0.724424071535797  0.17304016815951648  1.0000
  H   H1134     1.0  0.5582242659109385  0.7464838802729321  0.14207277969488996  1.0000
  H   H1135     1.0  0.609842595148212  0.7250901249828866  0.18711224807099433  1.0000
  H   H1136     1.0  0.613900723415457  0.7115512298922192  0.15224568151838158  1.0000
  C   C1529     1.0  0.022355699906970453  0.27112865058866503  0.3223675036309515  1.0000
  C   C1530     1.0  0.9929994299542299  0.23548322180936  0.3174040274491892  1.0000
  H   H1137     1.0  0.03289018759607478  0.26672633015742936  0.3438187028697588  1.0000
  H   H1138     1.0  0.04265049288652071  0.2619123043081692  0.3075999438942613  1.0000
  H   H1139     1.0  0.0015993655890307323  0.19915467378091606  0.32126168435358066  1.0000
  H   H1140     1.0  0.986773138553073  0.23586372525424107  0.29459279760487983  1.0000
  C   C1531     1.0  0.8473590992963961  0.37194863470517425  0.2978530578881629  1.0000
  C   C1532     1.0  0.8487955926280994  0.42533191744286347  0.3023377694019448  1.0000
  H   H1141     1.0  0.8552781721940139  0.35436354986837676  0.31714981612105797  1.0000
  H   H1142     1.0  0.8667815344672992  0.36172094841544  0.2820093368623838  1.0000
  H   H1143     1.0  0.8353375362481229  0.4377906638080861  0.32196923921687925  1.0000
  H   H1144     1.0  0.8357887798315726  0.4391436223409258  0.28374644760461387  1.0000
  C   C1533     1.0  0.5967753190242671  0.3716782104030911  0.13450596767029036  1.0000
  C   C1534     1.0  0.61423205038639  0.3718872015604265  0.10511045258460862  1.0000
  H   H1145     1.0  0.6148411742871902  0.361202572015383  0.15073608991482895  1.0000
  H   H1146     1.0  0.5780527847616443  0.34380785708984246  0.1345864679241986  1.0000
  H   H1147     1.0  0.6158348821944909  0.40705633782477646  0.0974080611850057  1.0000
  H   H1148     1.0  0.5977875893585777  0.3546502491104526  0.08912310215843536  1.0000
  C   C1535     1.0  0.6461332097500778  0.6627521407979785  0.5720962386761376  1.0000
  C   C1536     1.0  0.6150004174391444  0.6952356609631893  0.5733694137445281  1.0000
  H   H1149     1.0  0.657752860392409  0.6632860283532691  0.5935198983543972  1.0000
  H   H1150     1.0  0.6662017443189812  0.6775203879623389  0.5591695926406642  1.0000
  H   H1151     1.0  0.6187910874948451  0.7199737464791987  0.5914162996141112  1.0000
  H   H1152     1.0  0.5922554791138208  0.675639435681795  0.5781295208637854  1.0000
  C   C1537     1.0  0.5952007382592774  0.6396298185934458  0.3664668137785172  1.0000
  C   C1538     1.0  0.5583409314147413  0.6276464177571245  0.371765001542319  1.0000
  H   H1153     1.0  0.5991689777645273  0.6734517697992352  0.3761501469525828  1.0000
  H   H1154     1.0  0.599766191969847  0.6441934165610604  0.3434903465709226  1.0000
  H   H1155     1.0  0.544148288907924  0.6586222509194947  0.366182944462104  1.0000
  H   H1156     1.0  0.5531222048293741  0.626517051505584  0.39457834981436285  1.0000
  C   C1539     1.0  0.5969120946611138  0.3661959545627508  0.2945843238939421  1.0000
  C   C1540     1.0  0.595512801987339  0.35479833386256826  0.32616796298651346  1.0000
  H   H1157     1.0  0.5750737031256519  0.3493152654599097  0.28448154202846004  1.0000
  H   H1158     1.0  0.593430722663313  0.40421883631139854  0.2924828435813906  1.0000
  H   H1159     1.0  0.6029195759435936  0.3184232331281833  0.33006375159012463  1.0000
  H   H1160     1.0  0.5693573271289276  0.3542347661226237  0.3328897341878502  1.0000
  C   C1541     1.0  0.5101265230178179  0.38525968719162096  0.5469208434802076  1.0000
  C   C1542     1.0  0.015499921729357657  0.3331789524748572  0.503937944748685  1.0000
  H   H1161     1.0  0.48776350606279945  0.40402559963928336  0.5395720176694807  1.0000
  H   H1162     1.0  0.5060900819970939  0.38026642478687356  0.569791389301081  1.0000
  H   H1163     1.0  0.037236437861573136  0.31470013857519924  0.5125451166336616  1.0000
  H   H1164     1.0  0.022318767358551872  0.3425116856618873  0.48192324373252016  1.0000
  C   C1543     1.0  0.841338166806197  0.4404700196983424  0.4077549703224984  1.0000
  C   C1544     1.0  0.8198171181586547  0.472560944317885  0.38961275520486605  1.0000
  H   H1165     1.0  0.830848244488253  0.4375649545964365  0.4289519582331744  1.0000
  H   H1166     1.0  0.8644835045583696  0.46041640299540537  0.41133511319368  1.0000
  H   H1167     1.0  0.8296836296575557  0.5085066434115683  0.39196209156234557  1.0000
  H   H1168     1.0  0.8236224610179183  0.46544216832892404  0.36658544573164514  1.0000
  C   C1545     1.0  0.5942528892278607  0.9824372288122196  0.5884822772019299  1.0000
  C   C1546     1.0  0.5630978481455887  0.9731880220618582  0.5697384286077204  1.0000
  H   H1169     1.0  0.5903748695512283  0.017343259380164344  0.5990744158740646  1.0000
  H   H1170     1.0  0.6179156762564482  0.9853565373083786  0.5761699752094406  1.0000
  H   H1171     1.0  0.5562000265380429  0.006579286140127261  0.5604470045645238  1.0000
  H   H1172     1.0  0.5417396245960696  0.9657439605294865  0.5835717617135283  1.0000
  C   C1547     1.0  0.6571519832695241  0.07102563387604059  0.18867162272630603  1.0000
  C   C1548     1.0  0.6661586942252846  0.06125163897771684  0.15702654922943632  1.0000
  H   H1173     1.0  0.6432389789181739  0.10482936948609832  0.18982383557106083  1.0000
  H   H1174     1.0  0.6804351255067344  0.07824406674635259  0.20119343722173025  1.0000
  H   H1175     1.0  0.6888828112802109  0.08055729613474279  0.1516705283884847  1.0000
  H   H1176     1.0  0.6456745114993712  0.07751152184983691  0.14564932123892296  1.0000
  C   C1549     1.0  0.7304410576852945  0.780631759115371  0.8889643039085167  1.0000
  C   C1550     1.0  0.7312034402790918  0.7957292332252882  0.8575247179018864  1.0000
  H   H1177     1.0  0.7516529174468284  0.7565255897242715  0.890752256916373  1.0000
  H   H1178     1.0  0.7079776005228161  0.7596447014979432  0.8919322211644488  1.0000
  H   H1179     1.0  0.7318858984842721  0.7633903631689347  0.8439943199621015  1.0000
  H   H1180     1.0  0.7559591913958561  0.8124542664664919  0.8540759175502393  1.0000
  C   C1551     1.0  0.9766717121701802  0.8605575656249451  0.14351458161094094  1.0000
  C   C1552     1.0  0.013413243363904703  0.8722651956657838  0.13456062310583858  1.0000
  H   H1181     1.0  0.9767560813988627  0.845041470081141  0.1643819421661401  1.0000
  H   H1182     1.0  0.9680298096002311  0.8328613180779746  0.12867181768967853  1.0000
  H   H1183     1.0  0.029345603986828114  0.8409054899722269  0.13218904325714761  1.0000
  H   H1184     1.0  0.02506599860110706  0.8939113170224429  0.15206794543146318  1.0000
  C   C1553     1.0  0.9996007732086757  0.8568975238118799  0.8614904146207336  1.0000
  C   C1554     1.0  0.9978950536596507  0.8598310499989623  0.8288814565046997  1.0000
  H   H1185     1.0  0.9763908984961447  0.8408934361340373  0.8698984542986742  1.0000
  H   H1186     1.0  0.019406310797042754  0.8315137132645346  0.8671275508220437  1.0000
  H   H1187     1.0  0.978941323727046  0.8850372046988942  0.8214944989947529  1.0000
  H   H1188     1.0  0.9891631772075208  0.8261610773148215  0.8194650452251718  1.0000
  C   C1555     1.0  0.8401496048170035  0.9074976268246899  0.07476842398718493  1.0000
  C   C1556     1.0  0.8354916303159365  0.8581509973791703  0.08664623645134337  1.0000
  H   H1189     1.0  0.8293052060568747  0.9345366122571026  0.08889431196311726  1.0000
  H   H1190     1.0  0.8253491632532448  0.9102896981318819  0.05542950904237479  1.0000
  H   H1191     1.0  0.8529207163512004  0.852586742406868  0.1041999523443519  1.0000
  H   H1192     1.0  0.8422648432434756  0.8313384741209171  0.06997844703687216  1.0000
  C   C1557     1.0  0.6667722883252801  0.09936037403170808  0.9601455942129965  1.0000
  C   C1558     1.0  0.6333603145876536  0.10403022318642045  0.9771438583540383  1.0000
  H   H1193     1.0  0.6813813746681949  0.12933892234572367  0.9681024087835041  1.0000
  H   H1194     1.0  0.6632455213017525  0.10655784169038868  0.937859734446825  1.0000
  H   H1195     1.0  0.6281994526275595  0.14184838150759904  0.9803892896431804  1.0000
  H   H1196     1.0  0.6393273165457267  0.09075926878457193  0.9983238988428389  1.0000
  C   C1559     1.0  0.7000156353507165  0.8706572516173084  0.6811359510225613  1.0000
  C   C1560     1.0  0.6855692318516073  0.894557735938958  0.6549627763637164  1.0000
  H   H1197     1.0  0.7105403309872246  0.8362334733937745  0.6756788811786774  1.0000
  H   H1198     1.0  0.6792366904676694  0.861321883277914  0.6953018772826741  1.0000
  H   H1199     1.0  0.6761941737103466  0.9285284309121955  0.6631716838346208  1.0000
  H   H1200     1.0  0.6620606481373086  0.8772170100007156  0.6480122149670615  1.0000
  C   C1561     1.0  0.8757248780987713  0.860002667209384  0.9374042724839232  1.0000
  C   C1562     1.0  0.8820898955396939  0.8924055229798196  0.963770224066601  1.0000
  H   H1201     1.0  0.8589834919335538  0.8323755346646672  0.9446005714977715  1.0000
  H   H1202     1.0  0.8995466350263001  0.8419986917203242  0.9330318376400659  1.0000
  H   H1203     1.0  0.8939141810893024  0.8706542316861134  0.9797940114498064  1.0000
  H   H1204     1.0  0.9001974363251709  0.9201731564656301  0.9591478147500814  1.0000
  C   C1563     1.0  0.6788327081668071  0.07289671689692845  0.8795267083516446  1.0000
  C   C1564     1.0  0.660231161418372  0.07895936275726195  0.8518981738392485  1.0000
  H   H1205     1.0  0.6802035247087808  0.10783486758952078  0.8896443192112677  1.0000
  H   H1206     1.0  0.6630814383432304  0.051737353294962096  0.893754069016056  1.0000
  H   H1207     1.0  0.6750136369979394  0.0997192976611436  0.8367005732724695  1.0000
  H   H1208     1.0  0.6378660741736438  0.1015429701252061  0.8567557286342894  1.0000
  C   C1565     1.0  0.938624573906544  0.9282257369887129  0.7129483803104507  1.0000
  C   C1566     1.0  0.9601696054859374  0.9178784708927157  0.7396490434751679  1.0000
  H   H1209     1.0  0.9508315216615054  0.9559489220746474  0.7007017495777286  1.0000
  H   H1210     1.0  0.9379775980971179  0.8978048078445211  0.6973864101733503  1.0000
  H   H1211     1.0  0.9467121626961221  0.8930478287645744  0.7521223459754737  1.0000
  H   H1212     1.0  0.9613798888501282  0.9497504115594638  0.7528765062489298  1.0000
  C   C1567     1.0  0.8836036077827241  0.15305441284521293  0.9228231343878626  1.0000
  C   C1568     1.0  0.9170015797891512  0.17232738290756178  0.9130359982548101  1.0000
  H   H1213     1.0  0.8840713466140994  0.14726992372195016  0.9459161151208507  1.0000
  H   H1214     1.0  0.86428821210257  0.18010611027856804  0.92113262905579  1.0000
  H   H1215     1.0  0.9211997816795938  0.20302558470893348  0.9272421746418771  1.0000
  H   H1216     1.0  0.9154051053966554  0.18564806322731173  0.8915276014671734  1.0000
  C   C1569     1.0  0.8189064888827333  0.2802780650423267  0.5961869988720407  1.0000
  C   C1570     1.0  0.8351515652221723  0.3251035720239415  0.6084357480324973  1.0000
  H   H1217     1.0  0.7944661891411574  0.2902583317136547  0.5870057330710343  1.0000
  H   H1218     1.0  0.8126438771801843  0.2561712292187021  0.6132572895560531  1.0000
  H   H1219     1.0  0.8193330569173197  0.354669797866216  0.6018114245069442  1.0000
  H   H1220     1.0  0.8600091500914177  0.3308695835579998  0.5985935327783497  1.0000
  C   C1571     1.0  0.7214172719535522  0.2003490016921841  0.7219750008868439  1.0000
  C   C1572     1.0  0.7268930929422115  0.15921895871364417  0.7012207643726631  1.0000
  H   H1221     1.0  0.7124473249005583  0.18969590342475878  0.7427758428111821  1.0000
  H   H1222     1.0  0.6991385310481569  0.21861152959164143  0.7143105293436871  1.0000
  H   H1223     1.0  0.7360575643793962  0.17289583733081143  0.6809601215206037  1.0000
  H   H1224     1.0  0.7024251693247069  0.14438683758066034  0.6959437608862056  1.0000
  C   C1573     1.0  0.869718237752629  0.40062135268530297  0.11684018695013061  1.0000
  C   C1574     1.0  0.8992535012149433  0.36845288418527805  0.10861920444113997  1.0000
  H   H1225     1.0  0.8670024824662883  0.42885662449710815  0.10169279312065764  1.0000
  H   H1226     1.0  0.8754910581572637  0.41806000551322503  0.13719043929535618  1.0000
  H   H1227     1.0  0.8986721719110013  0.33653622717178827  0.12160728488091158  1.0000
  H   H1228     1.0  0.9235691339755524  0.3850396143267757  0.11421291287389432  1.0000
  C   C1575     1.0  0.0050929355407454135  0.17824545576902306  0.04179912131352494  1.0000
  C   C1576     1.0  0.011309536421398425  0.19917355256151187  0.012324587739666493  1.0000
  H   H1229     1.0  0.9856913263655842  0.19840674930853394  0.05352588988021873  1.0000
  H   H1230     1.0  0.026678794806191605  0.18273657209583258  0.055911663194730364  1.0000
  H   H1231     1.0  0.014755208134465958  0.17141822396226344  0.9958389831103561  1.0000
  H   H1232     1.0  0.03553187439409749  0.21736300789178975  0.012468640825607613  1.0000
  C   C1577     1.0  0.7797151636490561  0.1903430053142078  0.8086059846584993  1.0000
  C   C1578     1.0  0.8024467042487525  0.14615729538172684  0.8052885268263867  1.0000
  H   H1233     1.0  0.7536553836631027  0.1805768359086951  0.802659558007963  1.0000
  H   H1234     1.0  0.7856432540325327  0.21400605132802084  0.7917602473143363  1.0000
  H   H1235     1.0  0.7965207478749264  0.12660646735667858  0.785273621591521  1.0000
  H   H1236     1.0  0.7957855103849953  0.1231606566561766  0.82278038462955  1.0000
  C   C1579     1.0  0.8959733780346822  0.5609628340285763  0.16864866746604942  1.0000
  C   C1580     1.0  0.8840956555462817  0.5292649756684403  0.14392492106309943  1.0000
  H   H1237     1.0  0.8810244485153006  0.5537235566551411  0.18785539252023134  1.0000
  H   H1238     1.0  0.8897731049152862  0.5976618871438416  0.16382733778526715  1.0000
  H   H1239     1.0  0.8836295634176181  0.49321840569962194  0.15074583468240732  1.0000
  H   H1240     1.0  0.8578485537839728  0.5385381463823576  0.13915570470458405  1.0000
  C   C1581     1.0  0.6005347287910088  0.7320669386179512  0.08782831912715361  1.0000
  C   C1582     1.0  0.5647597485163386  0.7376437895333112  0.07621403907315788  1.0000
  H   H1241     1.0  0.6142824337365109  0.7074936991590032  0.07373759705161279  1.0000
  H   H1242     1.0  0.597385438559956  0.7120800670621006  0.10712465367450176  1.0000
  H   H1243     1.0  0.5657863945047492  0.7586063967171182  0.05636161724552265  1.0000
  H   H1244     1.0  0.549895171216272  0.7597558507838355  0.09152942422197093  1.0000
  C   C1583     1.0  0.5162692064179591  0.3546280360717861  0.8945145845727153  1.0000
  C   C1584     1.0  0.4925632830859999  0.3131144600408004  0.8992662179810349  1.0000
  H   H1245     1.0  0.5028034625787262  0.3843616498914658  0.8853502661935843  1.0000
  H   H1246     1.0  0.04354852113871607  0.3013616709216421  0.8928092502465016  1.0000
  H   H1247     1.0  0.5051050178341844  0.2862208990941031  0.9124280094950294  1.0000
  H   H1248     1.0  0.4719593718671221  0.3253304042620039  0.9127584842216001  1.0000
  C   C1585     1.0  0.9104086665772446  0.4952685575906  0.9185481472197891  1.0000
  C   C1586     1.0  0.9078048858514968  0.541134793464571  0.9368683102671131  1.0000
  H   H1249     1.0  0.9354398130365407  0.49249888308863415  0.9083013122683657  1.0000
  H   H1250     1.0  0.8919815605812147  0.49678607612853326  0.9007215778345862  1.0000
  H   H1251     1.0  0.8811030319544566  0.54835949990087  0.9406433484898621  1.0000
  H   H1252     1.0  0.9152597010745023  0.5718104725920831  0.9245009291535288  1.0000
  C   C1587     1.0  0.671030471832664  0.2735440667808403  0.030044389500736707  1.0000
  C   C1588     1.0  0.671782219318147  0.23932893264631325  0.0036178497511718533  1.0000
  H   H1253     1.0  0.6970641794103106  0.2805364318758077  0.03607830721670498  1.0000
  H   H1254     1.0  0.6601818709274059  0.25621289233350847  0.04840649741720258  1.0000
  H   H1255     1.0  0.6776548079724035  0.20465434097899876  0.011523822056053179  1.0000
  H   H1256     1.0  0.6469030222530945  0.23569220923684545  0.993536252163034  1.0000
  C   C1589     1.0  0.7279989959632377  0.3251380012892349  0.6033049160597153  1.0000
  C   C1590     1.0  0.7422386902367215  0.34741557265735856  0.5755153810395026  1.0000
  H   H1257     1.0  0.7460876458060781  0.29937655755737164  0.6112193620755343  1.0000
  H   H1258     1.0  0.7049883382811929  0.3041089144499771  0.5985172693799103  1.0000
  H   H1259     1.0  0.7510246218111369  0.3195523855924499  0.5609151770938321  1.0000
  H   H1260     1.0  0.7645828041551639  0.36781681227962315  0.5818749010982524  1.0000
  C   C1591     1.0  0.6043763539779334  0.657240195075007  0.6793776560029868  1.0000
  C   C1592     1.0  0.6101351963127056  0.6283408042836531  0.6515309234339447  1.0000
  H   H1261     1.0  0.6253727867415063  0.6522420546703406  0.6945053484545297  1.0000
  H   H1262     1.0  0.5832870001074373  0.6406672618533977  0.6905184674583381  1.0000
  H   H1263     1.0  0.6236661981501512  0.6494892399391627  0.6362189277695067  1.0000
  H   H1264     1.0  0.5850925420904777  0.6215064736493532  0.6420191829063677  1.0000
  C   C1593     1.0  0.5763890001072308  0.49226720328998597  0.8774781887324538  1.0000
  C   C1594     1.0  0.6062446133284836  0.5175086323318754  0.8921504192210947  1.0000
  H   H1265     1.0  0.5624175434444137  0.5191558551749633  0.8666297203044534  1.0000
  H   H1266     1.0  0.5584339630982774  0.47888915909875945  0.8930571062914295  1.0000
  H   H1267     1.0  0.6008824578236595  0.5552307454981587  0.891764865373429  1.0000
  H   H1268     1.0  0.6294924522999699  0.5120728561822245  0.8795711953340677  1.0000
  C   C1595     1.0  0.7686566394242873  0.45388382293968826  0.8314362803524186  1.0000
  C   C1596     1.0  0.766622650424003  0.47102760687815554  0.8624309965348192  1.0000
  H   H1269     1.0  0.7917543406498843  0.4328510139059259  0.827553202315214  1.0000
  H   H1270     1.0  0.7712115025709935  0.48562779754448054  0.8187744377837487  1.0000
  H   H1271     1.0  0.7876313215552564  0.4946349879736514  0.8670237478630568  1.0000
  H   H1272     1.0  0.7443575220571319  0.49302499500828145  0.8666890362810175  1.0000
  C   C1597     1.0  0.584176818406036  0.1842151823220255  0.7933236469823435  1.0000
  C   C1598     1.0  0.5600129461917659  0.16854348094873103  0.7690655309954205  1.0000
  H   H1273     1.0  0.6048487415066299  0.15794514431704462  0.7934782922069566  1.0000
  H   H1274     1.0  0.5707413103657409  0.1811516459306646  0.814052462363711  1.0000
  H   H1275     1.0  0.5610839179948964  0.12990090549124356  0.7669640506828689  1.0000
  H   H1276     1.0  0.5683664585608866  0.18091285240257415  0.7479617539050593  1.0000
  C   C1599     1.0  0.8248064856887758  0.5279809630239448  0.7688791093547909  1.0000
  C   C1600     1.0  0.8115657073468981  0.5572583673512628  0.744085031151058  1.0000
  H   H1277     1.0  0.8078053219296274  0.5322319695442113  0.7873221412107119  1.0000
  H   H1278     1.0  0.8492673630766749  0.5429564049121186  0.7766579759956066  1.0000
  H   H1279     1.0  0.8312579390121922  0.56097567141155  0.7280824280451967  1.0000
  H   H1280     1.0  0.8068693832946723  0.5930222056873168  0.7521647145301623  1.0000
