data_0
_chemical_formula_structural 
                                        C6H4C38H24C6H4C38H24C6H4C38H24C6H4C38H24C6H4C38H24C6H4C38H24C6H4C38H24C6H4C38H24C2H4C2H4C2H4C2H4C2H4C2H4C2H4C2H4C2H4C2H4C2H4C2H4C2H4C2H4C2H4C2H4C2H4C2H4C2H4C2H4C2H4C2H4C2H4C2H4
_chemical_formula_sum                   'C400 H320'
_cell_length_a                          28.854041767254003
_cell_length_b                          29.88943148196899
_cell_length_c                          30.5527401783854
_cell_angle_alpha                       79.43710226806961
_cell_angle_beta                        90.26027545512949
_cell_angle_gamma                       90.38491546345419
_space_group_name_H-M_alt               'P 1'
_space_group_IT_number                  1
loop_
  _space_group_symop_operation_xyz
         'x, y, z' 
loop_
  _atom_site_type_symbol
  _atom_site_label
  _atom_site_symmetry_multiplicity
  _atom_site_fract_x
  _atom_site_fract_y
  _atom_site_fract_z
  _atom_site_occupancy
         C         C         1.0       0.8069103398424465  0.2210009781408451  0.1910280509714363 1.0000   
         C         C         1.0       0.8380047842714021  0.19616562869734028           0.22150496119373347          1.0000   
         C         C         1.0       0.8777560351388721  0.17817278413280369           0.20694074433646764          1.0000   
         C         C         1.0       0.8898063436306743  0.18563088142998693           0.1607686165427338 1.0000   
         C         C         1.0       0.8598640175085346  0.21251311828069502           0.13206312834783507          1.0000   
         C         C         1.0       0.8177344831463049  0.2283219854940414  0.14562132094134578          1.0000   
         H         H         1.0       0.831028314394432   0.18983365252563522           0.2557776572878828 1.0000   
         H         H         1.0       0.9024569024064619  0.16069650504563346           0.23188334718901732          1.0000   
         H         H         1.0       0.8719432259882259  0.2271973056351103  0.09962334191914003          1.0000   
         H         H         1.0       0.7969399824601814  0.2498212406794083  0.121135493946288  1.0000   
         C         C         1.0       0.9078621269491387  0.15547455267734164           0.07305991861753447          1.0000   
         C         C         1.0       0.9420605119572475  0.17207339752999345           0.0964895432940268 1.0000   
         C         C         1.0       0.9802192524438762  0.18974021259588636           0.07038147737463664          1.0000   
         C         C         1.0       0.9820332218751453  0.19589676645536633           0.024227073935546826         1.0000   
         C         C         1.0       0.944290466770433   0.18162360321776258           0.003131143159369687         1.0000   
         C         C         1.0       0.9070139756860128  0.15914926887755684           0.028739975272427394         1.0000   
         C         C         1.0       0.9382913793924151  0.16847202077716278           0.1477378436951051 1.0000   
         C         C         1.0       0.9469727037860091  0.11688036494476378           0.17020756793397487          1.0000   
         C         C         1.0       0.9923679598266046  0.09918649815203276           0.17418936315849265          1.0000   
         C         C         1.0       0.002973213628572436          0.05566705457712851          0.19852605240790905          1.0000   
         C         C         1.0       0.9684171506237332  0.027721817618815203         0.21636699698015688          1.0000   
         C         C         1.0       0.922319999749608   0.04396621592828987           0.20902061532133187          1.0000   
         C         C         1.0       0.9128618565022968  0.08721643768213493           0.18662448997691222          1.0000   
         C         C         1.0       0.9749465669914913  0.2507033885031771  0.1422381879050084 1.0000   
         C         C         1.0       0.000534386248315119          0.28403853942051493          0.15902704348977856          1.0000   
         C         C         1.0       0.030101131426617866          0.2691450115894426 0.19529868222229582          1.0000   
         C         C         1.0       0.029091738026605175          0.22492264064720713          0.21459901374588952          1.0000   
         C         C         1.0       0.9974807200218031  0.195335422713153   0.20278473278920475          1.0000   
         C         C         1.0       0.9722085649497736  0.2050719886949472  0.16427389275214282          1.0000   
         C         C         1.0       0.06252612035116525           0.3046651837802806 0.21482487101875838          1.0000   
         C         C         1.0       0.18338414328019775           0.3010675613726025 0.12869691421685545          1.0000   
         C         C         1.0       0.14660988777404946           0.33247740461534514          0.11412763943174904          1.0000   
         C         C         1.0       0.1086950873785168  0.33228501698103696           0.14054434780893327          1.0000   
         C         C         1.0       0.1072894926372398  0.3056365943531909  0.18256551470295854          1.0000   
         C         C         1.0       0.1406000329648401  0.2738531132453534  0.19442901959833755          1.0000   
         C         C         1.0       0.17632445545446498           0.26982143867596076          0.1672878608802127 1.0000   
         C         C         1.0       0.07522149904277226           0.29538106685501486          0.26850814594935696          1.0000   
         C         C         1.0       0.04587251707984252           0.2704160248604509 0.2998889431888399 1.0000   
         C         C         1.0       0.05003004653176939           0.26565372399808823          0.3436193969161067 1.0000   
         C         C         1.0       0.08914475849371939           0.2858824941343715 0.3587630505505331 1.0000   
         C         C         1.0       0.12060664119533464           0.3071638869026358 0.3299905153889604 1.0000   
         C         C         1.0       0.11488687701337007           0.3133294189256459 0.2855614030289866 1.0000   
         C         C         1.0       0.06563152672023388           0.38875059586894206          0.20528827192691093          1.0000   
         C         C         1.0       0.050373682460772964          0.4304315286176172 0.20954113005203862          1.0000   
         C         C         1.0       0.005353607786243396          0.43501525984353845          0.2199603657508373 1.0000   
         C         C         1.0       0.9759798010208005  0.39789770951532605           0.22987083107339243          1.0000   
         C         C         1.0       0.9916187631979952  0.3556223873844683  0.22501042767250942          1.0000   
         C         C         1.0       0.0368074649516134  0.3515581447274526  0.2129955302907648 1.0000   
         H         H         1.0       0.8759125622288016  0.13966408815288733           0.0872097898774922 1.0000   
         H         H         1.0       0.007071242904892876          0.2009969110205167 0.08842586653412544          1.0000   
         H         H         1.0       0.015379438591741488          0.20562796428153302          0.009733746676576643         1.0000   
         H         H         1.0       0.8799505925708141  0.14227385283364918           0.01364714126826711          1.0000   
         H         H         1.0       0.022970463049183668          0.11927580663130025          0.16090927540950783          1.0000   
         H         H         1.0       0.037060552275048404          0.04535739887610491          0.20227897330881583          1.0000   
         H         H         1.0       0.8940192396468319  0.025596401033005197         0.22692474644134003          1.0000   
         H         H         1.0       0.876386274738784   0.09542225852158237           0.18033988628100922          1.0000   
         H         H         1.0       0.9529105747593589  0.2593581861536804  0.11497402177073689          1.0000   
         H         H         1.0       0.004055688391528043          0.3179392730808024 0.14059355218165545          1.0000   
         H         H         1.0       0.05191889405714484           0.21274272112489787          0.24143486577230147          1.0000   
         H         H         1.0       0.9966129301657276  0.1614067788214456  0.222826088921678  1.0000   
         H         H         1.0       0.14855707658296724           0.35385155817195685          0.08117096450199028          1.0000   
         H         H         1.0       0.07829924987339429           0.35028833990318925          0.12772426053529207          1.0000   
         H         H         1.0       0.14023749308189476           0.25200818414675363          0.22675297122596277          1.0000   
         H         H         1.0       0.19906396123523676           0.24231971894848525          0.1756135493726007 1.0000   
         H         H         1.0       0.013426129222355828          0.25769808496062396          0.29017063732243586          1.0000   
         H         H         1.0       0.027936637028805944          0.24466334003617998          0.3660676879366508 1.0000   
         H         H         1.0       0.15125162831748984           0.3211988296042123 0.3442576945874992 1.0000   
         H         H         1.0       0.1381610873784818  0.33296400923391406           0.2619267746893149 1.0000   
         H         H         1.0       0.10234055373125706           0.3894444779018004 0.1950550175458744 1.0000   
         H         H         1.0       0.07442522750254929           0.46037639002067376          0.20177269855570173          1.0000   
         H         H         1.0       0.9419414658199963  0.39982565872642667           0.23947869894877677          1.0000   
         H         H         1.0       0.9726983247338513  0.3228275783488828  0.23521881094928634          1.0000   
         C         C         1.0       0.9871951892776821  0.03938008284129758           0.7590835045241017 1.0000   
         C         C         1.0       0.954791560338251   0.05432879943167191           0.7262566594434111 1.0000   
         C         C         1.0       0.9387040624612525  0.09725652598404465           0.7199339985826774 1.0000   
         C         C         1.0       0.9500945487996373  0.12526254495273104           0.750512704405935  1.0000   
         C         C         1.0       0.9826447945185809  0.10906318769945333           0.7837271758469443 1.0000   
         C         C         1.0       0.9991612224957948  0.06525686862200786           0.789317890302681  1.0000   
         H         H         1.0       0.9397733524412467  0.030489757316296325         0.7049074792579543 1.0000   
         H         H         1.0       0.9172652975260657  0.10984000738243546           0.6900143972467446 1.0000   
         H         H         1.0       0.995889927534521   0.13074806402143702           0.8056228513634167 1.0000   
         H         H         1.0       0.027299214599860094          0.05832025162946788          0.8107667603907466 1.0000   
         C         C         1.0       0.8971360235007627  0.15147047792800494           0.8313574797019553 1.0000   
         C         C         1.0       0.9147908398785599  0.1835302103424766  0.7962808615579684 1.0000   
         C         C         1.0       0.9225246637125329  0.22726552057570454           0.8037668009240097 1.0000   
         C         C         1.0       0.9192265678171623  0.23658446538681863           0.8459962594828853 1.0000   
         C         C         1.0       0.9016410231383769  0.20438546383821807           0.8812552666787923 1.0000   
         C         C         1.0       0.8892829943535209  0.16215481593723338           0.8732775605985927 1.0000   
         C         C         1.0       0.9232240809799871  0.17323413364988163           0.7488089212448664 1.0000   
         C         C         1.0       0.8702256824460407  0.17509763087189162           0.732053484748083  1.0000   
         C         C         1.0       0.8526360148975043  0.21614958766124942           0.7081968887955746 1.0000   
         C         C         1.0       0.8093238234393696  0.2176764888673006  0.6876712686181223 1.0000   
         C         C         1.0       0.7849191998090754  0.17842494947029816           0.6891870517807709 1.0000   
         C         C         1.0       0.7973582451058893  0.14154826509620735           0.7178411803090003 1.0000   
         C         C         1.0       0.8396689876240941  0.138838484007244   0.7394253461369736 1.0000   
         C         C         1.0       0.004932713716765222          0.21087610153841185          0.7321657078743649 1.0000   
         C         C         1.0       0.03658436309248131           0.23859513735258958          0.7068745222565419 1.0000   
         C         C         1.0       0.026713229386460247          0.2571597348015505 0.6626008621372482 1.0000   
         C         C         1.0       0.9844426899232861  0.24651857224218646           0.6456333678394378 1.0000   
         C         C         1.0       0.9535172175165072  0.2189622443434664  0.671144011252428  1.0000   
         C         C         1.0       0.9600329795824633  0.20457226992585856           0.7170775312688417 1.0000   
         C         C         1.0       0.06467310446181573           0.2845925322945208 0.6293108080528867 1.0000   
         C         C         1.0       0.05994961917022515           0.4115431428827239 0.6864152340493147 1.0000   
         C         C         1.0       0.08783761934248495           0.37626671194731853          0.7037827832402859 1.0000   
         C         C         1.0       0.0907313894705436  0.3378248030518178  0.6832845597318432 1.0000   
         C         C         1.0       0.06456827566172374           0.3307128592450279 0.6473934937150079 1.0000   
         C         C         1.0       0.033349449657549234          0.36513206652402047          0.6327303262210099 1.0000   
         C         C         1.0       0.033485361447484596          0.4051058457673607 0.650594769969115  1.0000   
         C         C         1.0       0.056699208434739905          0.29189370511037455          0.5752770138872424 1.0000   
         C         C         1.0       0.04125087697402408           0.25530773070836105          0.5555846182218256 1.0000   
         C         C         1.0       0.0414627724431075  0.256266022590706   0.5110438760007071 1.0000   
         C         C         1.0       0.05627124578543403           0.2962555543004983 0.4830133748510272 1.0000   
         C         C         1.0       0.06992734713061359           0.33319889691231375          0.5002667838010516 1.0000   
         C         C         1.0       0.0714711553259526  0.33183640310388934           0.5472362158262507 1.0000   
         C         C         1.0       0.15076060732037372           0.28232792129957296          0.6212416238046534 1.0000   
         C         C         1.0       0.19327673548805716           0.26299760949998247          0.6271254798400199 1.0000   
         C         C         1.0       0.19735823574065206           0.21715442047995612          0.6383540060046363 1.0000   
         C         C         1.0       0.1580332788138491  0.19062085484496544           0.6479963404645512 1.0000   
         C         C         1.0       0.11496691700352381           0.21025808276817567          0.6405254003995452 1.0000   
         C         C         1.0       0.11217237177444371           0.25787235362710775          0.6325187214778166 1.0000   
         H         H         1.0       0.8842881751103323  0.11864869943822783           0.8244763500312232 1.0000   
         H         H         1.0       0.9283687111679138  0.25678585618521    0.7791627669099805 1.0000   
         H         H         1.0       0.9283108736738086  0.26968284531292464           0.8502924638121689 1.0000   
         H         H         1.0       0.8786659278405772  0.1360174963585708  0.9019952426563881 1.0000   
         H         H         1.0       0.8739598858763413  0.2462740251020714  0.6985618769037587 1.0000   
         H         H         1.0       0.7921691442026338  0.24746193947520592           0.6699648473363589 1.0000   
         H         H         1.0       0.7792703051515218  0.10896152700741372           0.7178179986012913 1.0000   
         H         H         1.0       0.8527228868921839  0.10492333206009273           0.7514209180765157 1.0000   
         H         H         1.0       0.01360113553899219           0.200233329251943  0.7655529380914775 1.0000   
         H         H         1.0       0.07056391037302959           0.24297081367439757          0.7192559975197129 1.0000   
         H         H         1.0       0.9745698651161093  0.25831319013922116           0.61068360454657   1.0000   
         H         H         1.0       0.9195932607522178  0.21417216524241242           0.6566470333693152 1.0000   
         H         H         1.0       0.11198734407187419           0.3762100496713007 0.730514002578099  1.0000   
         H         H         1.0       0.11500829869977583           0.3123221950154516 0.6964059416061114 1.0000   
         H         H         1.0       0.0062305112108937966         0.36360977498933167          0.6079480953593914 1.0000   
         H         H         1.0       0.012959317122206881          0.4337035496553869 0.6326102418710372 1.0000   
         H         H         1.0       0.03056185411201037           0.22415140614913714          0.5761598320887807 1.0000   
         H         H         1.0       0.02595729839329513           0.22886363103203464          0.4980634888361907 1.0000   
         H         H         1.0       0.07378653189799807           0.3672985628678167 0.47774776072312963          1.0000   
         H         H         1.0       0.08792840493871684           0.35718919785606174          0.5640037176659172 1.0000   
         H         H         1.0       0.1511066425091406  0.3190478964453643  0.6082637667634705 1.0000   
         H         H         1.0       0.22090930763356567           0.28583882035199104          0.6188686467102753 1.0000   
         H         H         1.0       0.16317278571248225           0.15403778074298605          0.6566832448124036 1.0000   
         H         H         1.0       0.0811226427865033  0.19057182888777296           0.6451078160162586 1.0000   
         C         C         1.0       0.8405290054502766  0.7301289747869266  0.4018337666216806 1.0000   
         C         C         1.0       0.847025941146922   0.7651510651640379  0.3658370673117448 1.0000   
         C         C         1.0       0.8916105365685766  0.7831780673198947  0.35568979427076786          1.0000   
         C         C         1.0       0.9268512524226883  0.7693100049433346  0.3848648931019241 1.0000   
         C         C         1.0       0.9195388045311337  0.7353704182028247  0.4202205153760704 1.0000   
         C         C         1.0       0.8775976703029171  0.7143032485976143  0.42731787689422257          1.0000   
         H         H         1.0       0.8183788248340174  0.772770278540635   0.3431880760975161 1.0000   
         H         H         1.0       0.8950903848082193  0.8096089045793599  0.32651002521897565          1.0000   
         H         H         1.0       0.9501461428790816  0.7203966525542637  0.43919486526504425          1.0000   
         H         H         1.0       0.8745932935668865  0.6935597992509969  0.45848947333123397          1.0000   
         C         C         1.0       0.9844639522746884  0.8070061662125995  0.4620013273251296 1.0000   
         C         C         1.0       0.004336989230522929          0.7957364699653952 0.4246023837874184 1.0000   
         C         C         1.0       0.05038239404063961           0.7830664379308558 0.4260778484061823 1.0000   
         C         C         1.0       0.07318337081501562           0.7788691262468664 0.46493018339018966          1.0000   
         C         C         1.0       0.052778894905510174          0.7887796426486458 0.503380831182176  1.0000   
         C         C         1.0       0.007490376852928591          0.8055434829807624 0.5007738394163964 1.0000   
         C         C         1.0       0.9757711291298556  0.7932582752988451  0.37946909125571304          1.0000   
         C         C         1.0       0.9775967941510236  0.8450717360762491  0.3610147064343985 1.0000   
         C         C         1.0       0.017457724067675894          0.8688925822923432 0.3422002622468453 1.0000   
         C         C         1.0       0.017074105609263   0.9130400249743387  0.3221029554561934 1.0000   
         C         C         1.0       0.9782362598534996  0.9379538055064915  0.32409955533454404          1.0000   
         C         C         1.0       0.9396211074178134  0.9174736181739801  0.3455730438373787 1.0000   
         C         C         1.0       0.9403155454825618  0.8726918256040442  0.3654335857672184 1.0000   
         C         C         1.0       0.013112538955460147          0.72057564634074   0.3643620735128632 1.0000   
         C         C         1.0       0.03271528234099966           0.6924584276626228 0.3386782692353489 1.0000   
         C         C         1.0       0.043389764372396784          0.7070590958290576 0.295759845315505  1.0000   
         C         C         1.0       0.03006909571849385           0.7508121986873052 0.2786285504233948 1.0000   
         C         C         1.0       0.003523603678009936          0.7767069748802846 0.3011731564397538 1.0000   
         C         C         1.0       0.9991698313274755  0.7639314210805831  0.3465057372512424 1.0000   
         C         C         1.0       0.07443623837298573           0.6785698711967244 0.2675361402068892 1.0000   
         C         C         1.0       0.21549988573531847           0.6836362965768171 0.31598605556362025          1.0000   
         C         C         1.0       0.18236517429842547           0.6565498352628775 0.3417108036912912 1.0000   
         C         C         1.0       0.13624529569878582           0.6587562348327949 0.32773332742984934          1.0000   
         C         C         1.0       0.12358919531995602           0.6845949003143392 0.28807706845175474          1.0000   
         C         C         1.0       0.15636481903771732           0.7156186395424539 0.266920089135406  1.0000   
         C         C         1.0       0.2028073584718514  0.7112743004851022  0.27779989261052107          1.0000   
         C         C         1.0       0.0667772967600062  0.6924954151735048  0.2121641102990961 1.0000   
         C         C         1.0       0.026706914516629498          0.7069812158620491 0.19061539204285036          1.0000   
         C         C         1.0       0.02376169859625126           0.7121082141499115 0.14480434085162333          1.0000   
         C         C         1.0       0.06127806106090202           0.7024050457212844 0.11955351426308376          1.0000   
         C         C         1.0       0.09958162249887323           0.6868223078209549 0.14079783306579774          1.0000   
         C         C         1.0       0.1027196053054336  0.6819876628632783  0.18665304085631063          1.0000   
         C         C         1.0       0.08262185634251319           0.5946435771322631 0.2680166334016361 1.0000   
         C         C         1.0       0.06961859061046576           0.5513000892659823 0.2679826665124339 1.0000   
         C         C         1.0       0.023251764843220255          0.5394153873194821 0.27107954574685555          1.0000   
         C         C         1.0       0.99160034437326    0.5732606018251469  0.27268520819841185          1.0000   
         C         C         1.0       0.006129043466242279          0.6168832321601374 0.275399000533153  1.0000   
         C         C         1.0       0.05299079637319584           0.6287719025570142 0.27251365121126897          1.0000   
         H         H         1.0       0.9469698494507314  0.8132620658558664  0.4607189546210828 1.0000   
         H         H         1.0       0.06991535123871272           0.7731184600823878 0.3987058682702339 1.0000   
         H         H         1.0       0.10893491471503267           0.7663655047435421 0.46753309144490723          1.0000   
         H         H         1.0       0.9915710472029482  0.8078152609914421  0.5315808319551152 1.0000   
         H         H         1.0       0.05074242400513584           0.8527334021387781 0.34531863516007194          1.0000   
         H         H         1.0       0.0502674068654712  0.9328571003456081  0.31171249758743586          1.0000   
         H         H         1.0       0.9094187413649343  0.9336160047708555  0.35080139010860983          1.0000   
         H         H         1.0       0.9078774932587002  0.8590543982914367  0.37812443415481634          1.0000   
         H         H         1.0       0.0095752608388992  0.7055550320350308  0.39828576089156925          1.0000   
         H         H         1.0       0.040477110204830795          0.6614740904395311 0.35528632061740245          1.0000   
         H         H         1.0       0.04190488228500702           0.7666464944283585 0.24563626870519548          1.0000   
         H         H         1.0       0.9923988645785138  0.8095044273589216  0.2885566280041808 1.0000   
         H         H         1.0       0.19590331247927398           0.6331965097847215 0.3714755004232729 1.0000   
         H         H         1.0       0.11752555446759393           0.6304835243373502 0.3475489520742014 1.0000   
         H         H         1.0       0.14786766121881073           0.7408244903601108 0.2395738942949898 1.0000   
         H         H         1.0       0.22987924705675933           0.7279579667000522 0.2569662067822081 1.0000   
         H         H         1.0       0.9955117197975266  0.715693927175577   0.2068832894943777 1.0000   
         H         H         1.0       0.9932414944906196  0.728072936587596   0.12850059366066116          1.0000   
         H         H         1.0       0.12679316102199634           0.6755664763615525 0.11957069506312383          1.0000   
         H         H         1.0       0.13197480864207362           0.6614196943417413 0.2012862441891702 1.0000   
         H         H         1.0       0.11962845086284965           0.6032071378499904 0.26226999455870875          1.0000   
         H         H         1.0       0.09803671137513988           0.5267486838698402 0.26656686235668653          1.0000   
         H         H         1.0       0.9557455840074617  0.5659883012193976  0.269531186720007  1.0000   
         H         H         1.0       0.9793939235976395  0.6405606270651435  0.27906597421352664          1.0000   
         C         C         1.0       0.8352565984846126  0.7352100516214692  0.8773466440776436 1.0000   
         C         C         1.0       0.851432060751599   0.7658670400888042  0.8424941510898868 1.0000   
         C         C         1.0       0.898940448073473   0.7712113475464544  0.8350428079088346 1.0000   
         C         C         1.0       0.930932090550386   0.749469693131631   0.8666357008134169 1.0000   
         C         C         1.0       0.9150961555590649  0.7168732331466333  0.9008818552187613 1.0000   
         C         C         1.0       0.8675014597964804  0.7117347739036878  0.9085485042966086 1.0000   
         H         H         1.0       0.8302946741433552  0.7868029000847675  0.8197818583501221 1.0000   
         H         H         1.0       0.9143741829741777  0.7955880361579176  0.8102804215634365 1.0000   
         H         H         1.0       0.942030289687376   0.7002380622445115  0.9237582118199648 1.0000   
         H         H         1.0       0.8556187087227608  0.690601068367643   0.9387739935965813 1.0000   
         C         C         1.0       0.9805186138100168  0.7758839510325113  0.9463673144183615 1.0000   
         C         C         1.0       0.006536477779533145          0.7670594968957933 0.9107746102431507 1.0000   
         C         C         1.0       0.05359782520772295           0.7550959858395732 0.91817640704964   1.0000   
         C         C         1.0       0.07111553513496549           0.7486600696978534 0.9593225729792713 1.0000   
         C         C         1.0       0.043594051488656756          0.7570923787769761 0.9953186534912095 1.0000   
         C         C         1.0       6.63984539457374e-05          0.7742172927636912 0.9881280832691214 1.0000   
         C         C         1.0       0.9851737858541753  0.7682478722869787  0.8636030893044117 1.0000   
         C         C         1.0       0.9931175465252038  0.820273035991455   0.8473759530194106 1.0000   
         C         C         1.0       0.03617000886404266           0.8378227554304264 0.8289312727218426 1.0000   
         C         C         1.0       0.04402289733729933           0.8831755186137232 0.8120172460824949 1.0000   
         C         C         1.0       0.009032114669785152          0.9119403489282761 0.8164183949758214 1.0000   
         C         C         1.0       0.9700162241574839  0.8982267237484531  0.8404209733396601 1.0000   
         C         C         1.0       0.9609459160582133  0.853362363765645   0.851144495944338  1.0000   
         C         C         1.0       0.01938709072026157           0.6930089941169548 0.8494641862224759 1.0000   
         C         C         1.0       0.04370584337054145           0.6659572424943899 0.8267003486006098 1.0000   
         C         C         1.0       0.05154452406728896           0.6821651811646066 0.7821234015382674 1.0000   
         C         C         1.0       0.035179532187141885          0.7267370297459451 0.7622750549676526 1.0000   
         C         C         1.0       0.010721391931581836          0.7505802278883039 0.7869670174490034 1.0000   
         C         C         1.0       0.006279959916971167          0.7359913406113785 0.8327153342953345 1.0000   
         C         C         1.0       0.08966108495152951           0.656451722611783  0.756360018471833  1.0000   
         C         C         1.0       0.21037569179836568           0.6986191214996913 0.8240635406137423 1.0000   
         C         C         1.0       0.18911507218638018           0.6585194767168219 0.839580522095594  1.0000   
         C         C         1.0       0.15268479623201586           0.6449964403600678 0.8162218523765379 1.0000   
         C         C         1.0       0.13412527499157165           0.6727266393841295 0.7791516933651618 1.0000   
         C         C         1.0       0.15390104691865603           0.7159823412350753 0.7656211722451638 1.0000   
         C         C         1.0       0.19353237779713608           0.728668739424053  0.7881976845056118 1.0000   
         C         C         1.0       0.08640673612935214           0.6689952296872177 0.7023098127462744 1.0000   
         C         C         1.0       0.04332516841276498           0.6721085179528644 0.6802030120868308 1.0000   
         C         C         1.0       0.03984843294649757           0.6922724500505255 0.6365184350039857 1.0000   
         C         C         1.0       0.07920036196053569           0.7040121181118842 0.61312594975168   1.0000   
         C         C         1.0       0.12191874208358076           0.6962142609929626 0.6327885017647672 1.0000   
         C         C         1.0       0.1261817009713145  0.6786892009546439  0.6768211486591531 1.0000   
         C         C         1.0       0.12067403264875438           0.5731194490657462 0.7554885765489537 1.0000   
         C         C         1.0       0.1137645642065935  0.5284003613704443  0.7539546204490272 1.0000   
         C         C         1.0       0.06849860899478918           0.511744018219826  0.756021096332115  1.0000   
         C         C         1.0       0.030686507053790724          0.5402618815874123 0.7601851863987337 1.0000   
         C         C         1.0       0.038103444862440036          0.5854196206420474 0.7615486015116215 1.0000   
         C         C         1.0       0.08308764704033357           0.6034498145415956 0.7592410644470331 1.0000   
         H         H         1.0       0.9447756725556198  0.7861978592190606  0.9409509067666648 1.0000   
         H         H         1.0       0.07632300678039887           0.7496245631321589 0.891464005122239  1.0000   
         H         H         1.0       0.10615578904950135           0.7425030339851703 0.9657106234486935 1.0000   
         H         H         1.0       0.9805196066028767  0.7791962036862878  0.015655478463062332         1.0000   
         H         H         1.0       0.06609520176774614           0.8147276322501553 0.8298897338949665 1.0000   
         H         H         1.0       0.0766438858973321  0.8916238587515702  0.7913856902155959 1.0000   
         H         H         1.0       0.9436578161864603  0.9202298148890053  0.8513052700679639 1.0000   
         H         H         1.0       0.9262389162163408  0.8468559966600083  0.8659713166193279 1.0000   
         H         H         1.0       0.01731110960683835           0.6789435587321386 0.8848008892074162 1.0000   
         H         H         1.0       0.06100648411764994           0.6373402287701548 0.8440772968513806 1.0000   
         H         H         1.0       0.044843077291402286          0.7411070127804468 0.7280572074812864 1.0000   
         H         H         1.0       0.0025127560285673756         0.7826825824291289 0.7718372621006041 1.0000   
         H         H         1.0       0.20349404453814224           0.6407143963763069 0.8705258008617295 1.0000   
         H         H         1.0       0.14068766913512806           0.6099316834101846 0.8300824240501674 1.0000   
         H         H         1.0       0.1415663704603175  0.7415632984306075  0.7353701638519109 1.0000   
         H         H         1.0       0.21321157116758835           0.7583105325045636 0.7767129090553647 1.0000   
         H         H         1.0       0.011326046617837537          0.6606751675225898 0.6986417216391492 1.0000   
         H         H         1.0       0.006573910652432735          0.692675161512989  0.6210964458442886 1.0000   
         H         H         1.0       0.15281930570043442           0.7104557034451455 0.615049528338524  1.0000   
         H         H         1.0       0.1582834466271701  0.671311803157446   0.6938057165612803 1.0000   
         H         H         1.0       0.15512858638589855           0.5847893839986966 0.7522783080541111 1.0000   
         H         H         1.0       0.14115950828406368           0.5048808771355455 0.7515206513898935 1.0000   
         H         H         1.0       0.9959210207100497  0.5282068684580244  0.7552059340812683 1.0000   
         H         H         1.0       0.00754191166759921           0.6067365468507996 0.7637638065165385 1.0000   
         C         C         1.0       0.33887552736869364           0.6847900902076687 0.3762379998193222 1.0000   
         C         C         1.0       0.3519255990402456  0.6485337390960682  0.40942675249785715          1.0000   
         C         C         1.0       0.39755459299136436           0.6367333622735545 0.41263642390449773          1.0000   
         C         C         1.0       0.43150775963146404           0.6576227283394324 0.3812050572002423 1.0000   
         C         C         1.0       0.4169675270754258  0.6937999050384197  0.3486772932145369 1.0000   
         C         C         1.0       0.3708695980856805  0.7074281526474974  0.3470521432177488 1.0000   
         H         H         1.0       0.3274250073917679  0.6274780535195932  0.42965119720650297          1.0000   
         H         H         1.0       0.4044095531425057  0.6083532494467225  0.4376016781558202 1.0000   
         H         H         1.0       0.4402538426068848  0.7163791901911555  0.3289584447560064 1.0000   
         H         H         1.0       0.35985327032035047           0.7356808517097219 0.31905710499375195          1.0000   
         C         C         1.0       0.48548704359095984           0.644385601611743  0.2959495658715729 1.0000   
         C         C         1.0       0.5094356249662221  0.6492522245628108  0.3327224560312463 1.0000   
         C         C         1.0       0.5565809081723234  0.6568017184086022  0.328779341687652  1.0000   
         C         C         1.0       0.5775993480908926  0.6604129730743044  0.28893149321680817          1.0000   
         C         C         1.0       0.5528753878716022  0.65893587953522    0.2516609008287471 1.0000   
         C         C         1.0       0.5056962298763531  0.6500085912272658  0.2546347050155698 1.0000   
         C         C         1.0       0.48454482698172907           0.6431447106451345 0.38025867305081296          1.0000   
         C         C         1.0       0.4938191975184529  0.5897793304950495  0.39809985719266433          1.0000   
         C         C         1.0       0.5380778075697791  0.5768141036590865  0.41353409931675966          1.0000   
         C         C         1.0       0.5468551170730832  0.5339790879193264  0.4316023404508524 1.0000   
         C         C         1.0       0.5157854246555315  0.4978408240080348  0.4336965817243423 1.0000   
         C         C         1.0       0.47146097711816687           0.510832704103161  0.4143755947384006 1.0000   
         C         C         1.0       0.4614759202321465  0.5554227259418261  0.3986133169973934 1.0000   
         C         C         1.0       0.5186715539920772  0.7174736285536603  0.39856716322480723          1.0000   
         C         C         1.0       0.5419947062047059  0.7426520620763104  0.42627111459419104          1.0000   
         C         C         1.0       0.5456029149472377  0.7275286282208928  0.47105791456719487          1.0000   
         C         C         1.0       0.5315231376444791  0.6831059397889114  0.4880197421177603 1.0000   
         C         C         1.0       0.5108210821809689  0.6567906762213638  0.46065253055667665          1.0000   
         C         C         1.0       0.5050128613648949  0.673505210876779   0.4151645934875284 1.0000   
         C         C         1.0       0.5762226297701697  0.7578136616208822  0.4994658193685525 1.0000   
         C         C         1.0       0.7174600972191918  0.7389744367824335  0.4570145975986236 1.0000   
         C         C         1.0       0.6931020782299704  0.7773386999372726  0.4355217890472849 1.0000   
         C         C         1.0       0.6484188636000819  0.7824593004485076  0.44858326535944076          1.0000   
         C         C         1.0       0.6257407000443678  0.7512458400874953  0.4799302563642829 1.0000   
         C         C         1.0       0.652796023636138   0.7151995489532812  0.5013300129796594 1.0000   
         C         C         1.0       0.6950335989928429  0.7069707840287328  0.48884845599202964          1.0000   
         C         C         1.0       0.5698923139312555  0.7472287665663789  0.55350478589391   1.0000   
         C         C         1.0       0.5290492608877727  0.7306072017213012  0.5737109376964858 1.0000   
         C         C         1.0       0.5259966536115726  0.716854838936074   0.6199460048207992 1.0000   
         C         C         1.0       0.5660356436438038  0.7221220374551239  0.6452380669095735 1.0000   
         C         C         1.0       0.6063258360371669  0.7415637732807598  0.6256023989632377 1.0000   
         C         C         1.0       0.6065059571191109  0.754088442371635   0.5805523162006243 1.0000   
         C         C         1.0       0.5814637134090933  0.8430158211118008  0.49503732749766627          1.0000   
         C         C         1.0       0.5631766234317619  0.8833659933419233  0.5016078760953779 1.0000   
         C         C         1.0       0.5168107621552132  0.8930082794479555  0.49332432605337767          1.0000   
         C         C         1.0       0.4872533868900012  0.861184288264674   0.48412089360291205          1.0000   
         C         C         1.0       0.505098927091524   0.8177976970974821  0.4841617710697717 1.0000   
         C         C         1.0       0.5528715082308909  0.8082025595392628  0.48836959392532575          1.0000   
         H         H         1.0       0.4494497502397701  0.6380067902291464  0.29748400840616424          1.0000   
         H         H         1.0       0.573780022556641   0.6619203942692337  0.3575354832881152 1.0000   
         H         H         1.0       0.614812686028527   0.6711559481622442  0.28654225842696507          1.0000   
         H         H         1.0       0.4852520390776373  0.648775752938372   0.22356976999355416          1.0000   
         H         H         1.0       0.5666009638644374  0.6008414826971809  0.41728116731098563          1.0000   
         H         H         1.0       0.5825062113701437  0.5279101937153126  0.4440942288357469 1.0000   
         H         H         1.0       0.44485687014714403           0.48640906342407886          0.41571598470879767          1.0000   
         H         H         1.0       0.4286680255565723  0.5631171787124749  0.38150676023137836          1.0000   
         H         H         1.0       0.5167499609157894  0.7323645733487573  0.36223838068976333          1.0000   
         H         H         1.0       0.5561562436100332  0.773816039934014   0.41160826282394564          1.0000   
         H         H         1.0       0.5378688323068592  0.6673257247819189  0.5227321997984246 1.0000   
         H         H         1.0       0.4971103623072105  0.6237934713675639  0.47809529409666707          1.0000   
         H         H         1.0       0.7110488128332384  0.8004750537922736  0.41032365812720994          1.0000   
         H         H         1.0       0.6304182569644133  0.814162774270237   0.43109628029551167          1.0000   
         H         H         1.0       0.6408592975229063  0.69058665068012    0.5296656663554463 1.0000   
         H         H         1.0       0.7115453350063562  0.679655083467544   0.5111309571353613 1.0000   
         H         H         1.0       0.500059771219185   0.7247143172128905  0.5530925772374027 1.0000   
         H         H         1.0       0.49513414398098987           0.7022287156291321 0.6377492005349845 1.0000   
         H         H         1.0       0.6358220057560773  0.7485492825267197  0.6447197274008769 1.0000   
         H         H         1.0       0.6355919690987155  0.7724245695197657  0.5666536469012311 1.0000   
         H         H         1.0       0.6173657953471468  0.8370460796810001  0.503679942727896  1.0000   
         H         H         1.0       0.5866623517687642  0.9088724449804666  0.5076566110977274 1.0000   
         H         H         1.0       0.4498617746810373  0.8670228792823703  0.4804703317205228 1.0000   
         H         H         1.0       0.4837996957585238  0.7911222850016141  0.478417817451408  1.0000   
         C         C         1.0       0.3203306084957766  0.726323238451369   0.8962402078448224 1.0000   
         C         C         1.0       0.3392886937578259  0.6931569888026188  0.9284646512023215 1.0000   
         C         C         1.0       0.3873822787023815  0.6900712917509169  0.933937953608237  1.0000   
         C         C         1.0       0.41641705438623866           0.7171198147057135 0.9057977133884237 1.0000   
         C         C         1.0       0.39756543460990107           0.7550071916728578 0.8797861939653212 1.0000   
         C         C         1.0       0.3495472285344185  0.759079209518649   0.8750462353961317 1.0000   
         H         H         1.0       0.3199599453476057  0.664238944784116   0.9502841517422455 1.0000   
         H         H         1.0       0.4040167420073005  0.6685482665313335  0.9602577932177053 1.0000   
         H         H         1.0       0.4218146369378165  0.7751542446735903  0.8591179026917921 1.0000   
         H         H         1.0       0.3356796686490539  0.7867538345753167  0.8505858797301675 1.0000   
         C         C         1.0       0.4618134839617121  0.7103993079494405  0.8155956879102211 1.0000   
         C         C         1.0       0.4898713966428641  0.7105066095231712  0.8528416276514743 1.0000   
         C         C         1.0       0.5359219287857937  0.7173237617703145  0.8438162815701173 1.0000   
         C         C         1.0       0.5552463485147944  0.7301740327002261  0.8030045599554752 1.0000   
         C         C         1.0       0.5273168519235126  0.7274794583108699  0.766389073073992  1.0000   
         C         C         1.0       0.47944960248689983           0.720235792495217  0.7717084673097883 1.0000   
         C         C         1.0       0.46872706094706384           0.7017975560946146 0.9020444007772044 1.0000   
         C         C         1.0       0.47930302392484186           0.6485181596397335 0.9130917493348624 1.0000   
         C         C         1.0       0.5210143328672179  0.6292012286515747  0.9327489821887945 1.0000   
         C         C         1.0       0.5272325829307958  0.5817341294901192  0.9401199988578707 1.0000   
         C         C         1.0       0.49690075068837636           0.553392730304831  0.9226175497283504 1.0000   
         C         C         1.0       0.45928993871530865           0.5732184607228651 0.9001247983272087 1.0000   
         C         C         1.0       0.4512487373728204  0.618753715934204   0.8963095638019468 1.0000   
         C         C         1.0       0.5106184651724524  0.775360193673513   0.9169593053408349 1.0000   
         C         C         1.0       0.5404594621778631  0.7961812903347402  0.943009221410293  1.0000   
         C         C         1.0       0.5549477875405046  0.77271832416536    0.9841917650646649 1.0000   
         C         C         1.0       0.53340844790894    0.7329081814884332  0.001702263537370241         1.0000   
         C         C         1.0       0.49978532733023806           0.7151314390897108 0.979023054404712  1.0000   
         C         C         1.0       0.49346794952711875           0.7305145398316915 0.932935401912152  1.0000   
         C         C         1.0       0.5940902552756178  0.7965527975898823  0.010498866235503002         1.0000   
         C         C         1.0       0.72460202113877    0.7697123297381123  0.943012228274786  1.0000   
         C         C         1.0       0.7050468971792353  0.8110757257418043  0.9309591132672557 1.0000   
         C         C         1.0       0.662153845985186   0.8196783526576609  0.9501495550304326 1.0000   
         C         C         1.0       0.6399737700499794  0.7873091000652498  0.9807265399613183 1.0000   
         C         C         1.0       0.6590403436077442  0.7447858228995853  0.9870349159983428 1.0000   
         C         C         1.0       0.7005576031392461  0.7352563582571615  0.9683440027254953 1.0000   
         C         C         1.0       0.5940694299163833  0.778647262070615   0.06315904624079978          1.0000   
         C         C         1.0       0.5526036369836742  0.7730613510902695  0.08765218564811682          1.0000   
         C         C         1.0       0.555495368071717   0.7589364222302702  0.13208349972138472          1.0000   
         C         C         1.0       0.596351334361299   0.7445110184617456  0.15287015781648336          1.0000   
         C         C         1.0       0.6365249162891959  0.7498043403535527  0.12973519334459638          1.0000   
         C         C         1.0       0.6367753865002627  0.7726241324018575  0.08571060202319347          1.0000   
         C         C         1.0       0.6197221947578668  0.8823923724296159  0.015170289295808177         1.0000   
         C         C         1.0       0.6094042248610283  0.9260265863827124  0.021881540222425055         1.0000   
         C         C         1.0       0.5642087400990392  0.9409007970372456  0.021914014781682978         1.0000   
         C         C         1.0       0.529598062905814   0.9093135095595193  0.018717885139573065         1.0000   
         C         C         1.0       0.5375410249689206  0.866477143719821   0.012406221698381348         1.0000   
         C         C         1.0       0.5849252335333522  0.8501119871235349  0.011923524242945183         1.0000   
         H         H         1.0       0.425288063405788   0.7033136238923978  0.8181053923396362 1.0000   
         H         H         1.0       0.5577811751234928  0.7158205939763207  0.8736859810397604 1.0000   
         H         H         1.0       0.5928646996754525  0.7397492562529812  0.7978927592907405 1.0000   
         H         H         1.0       0.45961979257525304           0.719646891419567  0.7430485973421961 1.0000   
         H         H         1.0       0.5465786677538196  0.6484204114627431  0.9472675368461247 1.0000   
         H         H         1.0       0.5574031923943714  0.5661369500107715  0.9577460459635299 1.0000   
         H         H         1.0       0.4307412880587529  0.5524059480805416  0.8936061699188145 1.0000   
         H         H         1.0       0.4163357432616709  0.6315093411022357  0.8825742894154867 1.0000   
         H         H         1.0       0.503684804726424   0.7892419523628738  0.883269643533559  1.0000   
         H         H         1.0       0.5550676567354417  0.8286983936507964  0.9298180626164282 1.0000   
         H         H         1.0       0.5421437862566674  0.7137175660350658  0.03313535725946464          1.0000   
         H         H         1.0       0.48737796347099815           0.6824377360583547 0.9942676388174418 1.0000   
         H         H         1.0       0.7216653294993438  0.8353466825259545  0.9080507695405888 1.0000   
         H         H         1.0       0.645243787018395   0.8523725986633636  0.9402273846247422 1.0000   
         H         H         1.0       0.641384063529576   0.7207806028828708  0.012755311007676469         1.0000   
         H         H         1.0       0.7173594709685159  0.7028194537943031  0.9731214879750051 1.0000   
         H         H         1.0       0.5176174777924937  0.7799482989369666  0.07254985496842102          1.0000   
         H         H         1.0       0.5271301047576402  0.747295656569387   0.1516873333319496 1.0000   
         H         H         1.0       0.6671848735435528  0.730460770848846   0.14574022159599478          1.0000   
         H         H         1.0       0.6684566029192025  0.773734716246054   0.0670506794521776 1.0000   
         H         H         1.0       0.655385943008432   0.8717842969426793  0.017178314961903193         1.0000   
         H         H         1.0       0.6393283299054195  0.9471278648186232  0.02893316355029511          1.0000   
         H         H         1.0       0.49470682041110653           0.918934681524319  0.01957057426691322          1.0000   
         H         H         1.0       0.5103065730886989  0.8437691739162434  0.006298681803276418         1.0000   
         C         C         1.0       0.4843978504906357  0.4295125520846706  0.986123677925147  1.0000   
         C         C         1.0       0.46224403297602434           0.4096283642366122 0.02579817883922363          1.0000   
         C         C         1.0       0.44798824941750676           0.36589855711914143          0.032102521097119745         1.0000   
         C         C         1.0       0.45359926329045164           0.340950518253364  0.9990467243002423 1.0000   
         C         C         1.0       0.4837898299337497  0.35654135774870543           0.9663559168458509 1.0000   
         C         C         1.0       0.49825132015322715           0.3999447593103709 0.9578160849226418 1.0000   
         H         H         1.0       0.45672630833905487           0.4285026298828425 0.05222718991870723          1.0000   
         H         H         1.0       0.43066950877467175           0.34948556706831346          0.06278136319498619          1.0000   
         H         H         1.0       0.4922717081031813  0.3375422310779474  0.9412737856448524 1.0000   
         H         H         1.0       0.5185581072329442  0.410628007843197   0.928206402396006  1.0000   
         C         C         1.0       0.40654809225035    0.3074814020086826  0.9207722243433952 1.0000   
         C         C         1.0       0.4232982940303797  0.27670609137716295           0.9561468189425424 1.0000   
         C         C         1.0       0.43926643849492486           0.23410637016507344          0.9484671245120082 1.0000   
         C         C         1.0       0.4431481472646079  0.2259213408794406  0.9063775333157876 1.0000   
         C         C         1.0       0.4282270545913364  0.25750170153752205           0.8713278918675909 1.0000   
         C         C         1.0       0.4090556661493168  0.29911496352587197           0.8787871228747474 1.0000   
         C         C         1.0       0.42756707411082345           0.29225390569944404          0.003159948730451223         1.0000   
         C         C         1.0       0.37279873129475066           0.2920884343975593 0.015186170268407972         1.0000   
         C         C         1.0       0.35111486075881776           0.25100410741821294          0.030960164010773988         1.0000   
         C         C         1.0       0.30534629757800236           0.25043652719183646          0.0447548343778661 1.0000   
         C         C         1.0       0.2791078936220585  0.2889906630947225  0.03780658867257632          1.0000   
         C         C         1.0       0.2987956472350745  0.32906342088313834           0.017520787027011403         1.0000   
         C         C         1.0       0.34616740795977474           0.3297502199262913 0.007810232193596276         1.0000   
         C         C         1.0       0.5095780539484478  0.255722418759854   0.025280847578747778         1.0000   
         C         C         1.0       0.54092726048932    0.23074533936846237           0.05405044780259401          1.0000   
         C         C         1.0       0.5264749562942937  0.2088192684962391  0.09579771952056972          1.0000   
         C         C         1.0       0.4804724104460256  0.2136115898357045  0.10668950037611467          1.0000   
         C         C         1.0       0.45008582677047965           0.24091811789214915          0.07920027295455365          1.0000   
         C         C         1.0       0.4621032743726798  0.25975024408185554           0.03597468341767332          1.0000   
         C         C         1.0       0.563623449989691   0.17862011777678885           0.12371204060766368          1.0000   
         C         C         1.0       0.5625904103445081  0.047307546901900865         0.08071505033946935          1.0000   
         C         C         1.0       0.5970078719664271  0.07597494175787968           0.06759235164776523          1.0000   
         C         C         1.0       0.5949492908183763  0.11984117374930624           0.07428320441408703          1.0000   
         C         C         1.0       0.5615331141295569  0.1323956333166603  0.1013885437335156 1.0000   
         C         C         1.0       0.5230337632102965  0.10359239815392444           0.11066390909293822          1.0000   
         C         C         1.0       0.5228556050769259  0.06161002300730135           0.09949215921278469          1.0000   
         C         C         1.0       0.5506904290991397  0.16558734647341092           0.17593356679544417          1.0000   
         C         C         1.0       0.5293672153432651  0.19631975885451594           0.19845641005397835          1.0000   
         C         C         1.0       0.5213050840795601  0.18667460394069366           0.24311660642860403          1.0000   
         C         C         1.0       0.5355518470213     0.14550378570821199           0.26740592842230687          1.0000   
         C         C         1.0       0.5562197496497884  0.11394679318960546           0.24594215002290995          1.0000   
         C         C         1.0       0.5653748447146255  0.12377196974759876           0.20065833884879528          1.0000   
         C         C         1.0       0.6546297636343047  0.18278445887113418           0.13413063442304335          1.0000   
         C         C         1.0       0.6926430195424269  0.20227320160076737           0.15054574707337637          1.0000   
         C         C         1.0       0.6889989786532186  0.24655606307785097           0.1578254064686459 1.0000   
         C         C         1.0       0.6490980038016495  0.2712459608427787  0.1483402384906095 1.0000   
         C         C         1.0       0.6122620167029192  0.2513147200608718  0.13173260572552736          1.0000   
         C         C         1.0       0.6127469152133682  0.2046684725319544  0.12667575022263666          1.0000   
         H         H         1.0       0.39861087817188595           0.3429381563254882 0.9245335323691454 1.0000   
         H         H         1.0       0.4507088700135986  0.2067774502461461  0.9769498892795673 1.0000   
         H         H         1.0       0.46004516277821295           0.19450776775100279          0.9023022937347136 1.0000   
         H         H         1.0       0.3923649468683771  0.32226398378133636           0.8514437893206915 1.0000   
         H         H         1.0       0.37068476334958705           0.22061324861536363          0.03399765531003227          1.0000   
         H         H         1.0       0.28769486967385693           0.2203834620024161 0.0656610079201567 1.0000   
         H         H         1.0       0.2785164293613238  0.35848279050829013           0.005911388940600171         1.0000   
         H         H         1.0       0.3624554203747253  0.36278935766741033           0.9978726662626042 1.0000   
         H         H         1.0       0.5236704431653654  0.272533210917969   0.9927709802666852 1.0000   
         H         H         1.0       0.5747545980954787  0.2293537682245181  0.04193016420099551          1.0000   
         H         H         1.0       0.47013023907333046           0.1963632398148829 0.14010904114070324          1.0000   
         H         H         1.0       0.41792190914411786           0.2504898565020271 0.09574366056670802          1.0000   
         H         H         1.0       0.6279269375501344  0.06433750333431387           0.05452474444749481          1.0000   
         H         H         1.0       0.6223018093917274  0.14262187409039942           0.06659861157050638          1.0000   
         H         H         1.0       0.49349051356431434           0.11534097249831632          0.12695484102489452          1.0000   
         H         H         1.0       0.49369499117206417           0.04016544561291813          0.1068196166668112 1.0000   
         H         H         1.0       0.5205151207545846  0.2307619935294869  0.18404172041623776          1.0000   
         H         H         1.0       0.5075929156880424  0.21336016229248497           0.25796362356247043          1.0000   
         H         H         1.0       0.5690755105319487  0.07995829317192495           0.26330135675166894          1.0000   
         H         H         1.0       0.5871432303077079  0.09780757683558217           0.18691982659629452          1.0000   
         H         H         1.0       0.6569547993173788  0.14555994156791802           0.13318997364880913          1.0000   
         H         H         1.0       0.7227281750638549  0.17942622057673527           0.15959234205637676          1.0000   
         H         H         1.0       0.6461651616786714  0.3073065978339836  0.1519286311204925 1.0000   
         H         H         1.0       0.5809175776566597  0.2715712725505239  0.13060416621473292          1.0000   
         C         C         1.0       0.321552935888718   0.21586110179045193           0.6020258266941207 1.0000   
         C         C         1.0       0.3517641955405133  0.19955693386527065           0.6384925954524144 1.0000   
         C         C         1.0       0.3975038742378457  0.21386483793057198           0.6373606198978008 1.0000   
         C         C         1.0       0.41397733060413205           0.24930906115263032          0.6029770519125001 1.0000   
         C         C         1.0       0.38631627309795785           0.2636580086298145 0.5680183374820573 1.0000   
         C         C         1.0       0.3404858799338661  0.248888559534459   0.5686315911643163 1.0000   
         H         H         1.0       0.3356660455706984  0.1756757517531418  0.6649534284942136 1.0000   
         H         H         1.0       0.4206223808000976  0.20004132713078393           0.6667560078475463 1.0000   
         H         H         1.0       0.3977967071747288  0.28390264055734477           0.5370711779285189 1.0000   
         H         H         1.0       0.31728915157899407           0.26207957464744336          0.5427282423294433 1.0000   
         C         C         1.0       0.5114345697284955  0.2547650881291726  0.6874281314698658 1.0000   
         C         C         1.0       0.4740634272020301  0.27379298302915883           0.6612167100986055 1.0000   
         C         C         1.0       0.43967475136329887           0.29663411386686217          0.6799395383611124 1.0000   
         C         C         1.0       0.44225055817017944           0.29916038388168936          0.7250790421823295 1.0000   
         C         C         1.0       0.4791028554981885  0.27837185607916787           0.7503685343793396 1.0000   
         C         C         1.0       0.5132086009083099  0.2572003655327649  0.7314528677851507 1.0000   
         C         C         1.0       0.46609690231765677           0.27098811949839874          0.6097571924785903 1.0000   
         C         C         1.0       0.4791279550411241  0.31918870950007006           0.5824224919140545 1.0000   
         C         C         1.0       0.5260742958224445  0.3346768672992667  0.5812118922259599 1.0000   
         C         C         1.0       0.5370755022687348  0.37780116514562484           0.5603250116819604 1.0000   
         C         C         1.0       0.5029972910402734  0.4069015108995818  0.5419589343757505 1.0000   
         C         C         1.0       0.45832170529564137           0.39389044005527285          0.5478857332731312 1.0000   
         C         C         1.0       0.44606613987230687           0.35129693148364444          0.5711638401094741 1.0000   
         C         C         1.0       0.5029811323750162  0.1901143110444928  0.6141065696545166 1.0000   
         C         C         1.0       0.5277928030441312  0.15756161362250207           0.597070272179617  1.0000   
         C         C         1.0       0.5421483166848594  0.16502197279374808           0.5550720844857129 1.0000   
         C         C         1.0       0.5375302096567828  0.207598800542162   0.5304243643294235 1.0000   
         C         C         1.0       0.5135604707553453  0.24228129673614543           0.5453193670528208 1.0000   
         C         C         1.0       0.4967028047725141  0.23394895185308004           0.5889774323783321 1.0000   
         C         C         1.0       0.5723841861723993  0.13001409411961123           0.5351709694521992 1.0000   
         C         C         1.0       0.7084856796231549  0.14882780985373573           0.5951596798055464 1.0000   
         C         C         1.0       0.6776430939267285  0.11544578696103629           0.6165840546648987 1.0000   
         C         C         1.0       0.6378588694291719  0.10888145504438983           0.5948685770271732 1.0000   
         C         C         1.0       0.6222071351086224  0.13733376089688148           0.5576079242450611 1.0000   
         C         C         1.0       0.6529273882414308  0.1701828305545189  0.5377756288852168 1.0000   
         C         C         1.0       0.6953009680338295  0.1757382192748052  0.5558444573715213 1.0000   
         C         C         1.0       0.5752162114074094  0.13224887263710214           0.4818129645610165 1.0000   
         C         C         1.0       0.5351077464436482  0.14404444089104673           0.45692779104326897          1.0000   
         C         C         1.0       0.5353940266695992  0.1467327905482637  0.41314834386513266          1.0000   
         C         C         1.0       0.5750913674228801  0.135972738239995   0.3919635694918385 1.0000   
         C         C         1.0       0.6145456315166189  0.12435844387444919           0.41576837062242783          1.0000   
         C         C         1.0       0.6134759919770687  0.12063173522301844           0.46056179641999256          1.0000   
         C         C         1.0       0.5774245330266057  0.041809365547683885         0.547997315754529  1.0000   
         C         C         1.0       0.5588350353419325  0.9997993444226227  0.5494183400035813 1.0000   
         C         C         1.0       0.5103197030211121  0.9971385304847418  0.5426535644443032 1.0000   
         C         C         1.0       0.4817917125333583  0.03406125032662423           0.5431040339654203 1.0000   
         C         C         1.0       0.5018175563913002  0.07486412955191657           0.5442526646947459 1.0000   
         C         C         1.0       0.5501239968997369  0.08003073572359322           0.5430516045862417 1.0000   
         H         H         1.0       0.5416997107086787  0.2433038501002145  0.6716633092488276 1.0000   
         H         H         1.0       0.41332322060536103           0.3140049212413745 0.658410882720057  1.0000   
         H         H         1.0       0.4163909256826325  0.3159288736089111  0.7410925003852286 1.0000   
         H         H         1.0       0.5410762398745853  0.2426127261251833  0.7529664451849527 1.0000   
         H         H         1.0       0.5551353565559737  0.3170265216318456  0.5965506613714636 1.0000   
         H         H         1.0       0.5741383207828388  0.3866490371631804  0.5616503088176769 1.0000   
         H         H         1.0       0.43072335875013856           0.41789538136639187          0.5326005870272816 1.0000   
         H         H         1.0       0.4093878027302566  0.34467900195430795           0.5778079207556175 1.0000   
         H         H         1.0       0.4832963751291436  0.17862204156584727           0.6435072225749385 1.0000   
         H         H         1.0       0.5318239872084798  0.12326363761699499           0.6160514588996604 1.0000   
         H         H         1.0       0.5489620735165438  0.2167785836843391  0.49586109345677964          1.0000   
         H         H         1.0       0.5053848886942198  0.27081211697198104           0.5190749703829636 1.0000   
         H         H         1.0       0.6868161174729657  0.09307798046809895           0.645698687394906  1.0000   
         H         H         1.0       0.6129286739055502  0.08358710876603627           0.6109195978372007 1.0000   
         H         H         1.0       0.6439184370273474  0.19215048780352287           0.5070057658871508 1.0000   
         H         H         1.0       0.7179738666728975  0.20160816169781276           0.5387910623875838 1.0000   
         H         H         1.0       0.5052646663927274  0.15153355378451178           0.47377827603676803          1.0000   
         H         H         1.0       0.5055708908792351  0.15926342090127732           0.3982941494303509 1.0000   
         H         H         1.0       0.6465578417542114  0.1188669019062632  0.3975436864153007 1.0000   
         H         H         1.0       0.6470538238255323  0.11183642782426141           0.47861650025607994          1.0000   
         H         H         1.0       0.615104824283747   0.050155705522244354         0.5390839398939916 1.0000   
         H         H         1.0       0.5807414604409203  0.972403633427289   0.5485716291280619 1.0000   
         H         H         1.0       0.4445017177683406  0.029620056469467748         0.539441707570928  1.0000   
         H         H         1.0       0.4780684591798376  0.10162158962723498           0.5457174513700627 1.0000   
         C         C         1.0       0.43737726964438584           0.2502549846405809 0.8234611757847188 1.0000   
         C         C         1.0       0.477601776941065   0.27951666109508483           0.8003669099723504 1.0000   
         H         H         1.0       0.441181419144962   0.213959147236395   0.8198042126797546 1.0000   
         H         H         1.0       0.4057635662341648  0.26112326657386975           0.8048874785662602 1.0000   
         H         H         1.0       0.5103072159642265  0.26892335132472744           0.8180923851642025 1.0000   
         H         H         1.0       0.47182360753304964           0.3167147962364353 0.8024515167494924 1.0000   
         C         C         1.0       0.529629774885634   0.13781316305300179           0.318492099589627  1.0000   
         C         C         1.0       0.5792767608163628  0.14273742558876992           0.3404075360113779 1.0000   
         H         H         1.0       0.5103186490109399  0.10543311871282682           0.326806454529353  1.0000   
         H         H         1.0       0.5044575717834936  0.1650820795490463  0.3254435772034846 1.0000   
         H         H         1.0       0.5962138827896373  0.17506520544514936           0.3271758696041046 1.0000   
         H         H         1.0       0.6034424181064455  0.11820603854004492           0.3304066518954163 1.0000   
         C         C         1.0       0.5511533623609937  0.986948310365081   0.030175175903486263         1.0000   
         C         C         1.0       0.5686211774313888  0.9972663714712581  0.07508490961480001          1.0000   
         H         H         1.0       0.5116338982421129  0.9876962684114654  0.03324033608503907          1.0000   
         H         H         1.0       0.5616513078801083  0.012442996230620524         0.0006899535547322255        1.0000   
         H         H         1.0       0.6044042206569823  0.9895902581609975  0.0772769027275949 1.0000   
         H         H         1.0       0.5516092071280905  0.9742513470669548  0.10422536920012158          1.0000   
         C         C         1.0       0.4972628984288404  0.4802635414398906  0.9749718982369535 1.0000   
         C         C         1.0       0.500466017222222   0.5007640339966447  0.9280732040550667 1.0000   
         H         H         1.0       0.5329767880038974  0.48180021341363594           0.9928657442959017 1.0000   
         H         H         1.0       0.47133972460483775           0.4999508695628087 0.9919577863153052 1.0000   
         H         H         1.0       0.4724182394947221  0.4876405160871747  0.9111202048330945 1.0000   
         H         H         1.0       0.5341552958087649  0.4954908151241985  0.911354047771094  1.0000   
         C         C         1.0       0.5640552374923562  0.7042277161585184  0.6959051129506878 1.0000   
         C         C         1.0       0.5484693897258963  0.7426240108275914  0.7204992843243759 1.0000   
         H         H         1.0       0.5990679221926842  0.6863915049356114  0.7066366159827167 1.0000   
         H         H         1.0       0.5387741612683112  0.6749959088243918  0.7047698955497285 1.0000   
         H         H         1.0       0.5218362036957032  0.7622419658773821  0.700824803762499  1.0000   
         H         H         1.0       0.5777158793680567  0.7662335465651995  0.7243537193858385 1.0000   
         C         C         1.0       0.5773992687646611  0.6692416447284507  0.20605425353912843          1.0000   
         C         C         1.0       0.5953042216037122  0.7176303983501586  0.2019849698304161 1.0000   
         H         H         1.0       0.6058168154781348  0.6443443768140797  0.20651972106457936          1.0000   
         H         H         1.0       0.5519957189830034  0.6665851534240009  0.18025213977515747          1.0000   
         H         H         1.0       0.5724289426987127  0.7396710920187893  0.2178881366053944 1.0000   
         H         H         1.0       0.6312362580169885  0.7118307331004523  0.21579416864439482          1.0000   
         C         C         1.0       0.49645790147300484           0.9391443584684577 0.4925128061681052 1.0000   
         C         C         1.0       0.4897611625409053  0.951631019106059   0.5400628000957536 1.0000   
         H         H         1.0       0.5199929628107057  0.9633707152698749  0.47073288399865837          1.0000   
         H         H         1.0       0.45959004809257353           0.9430070727645411 0.4796331485827768 1.0000   
         H         H         1.0       0.4524970406180143  0.9478059093571188  0.5474972293459781 1.0000   
         H         H         1.0       0.5027056858508121  0.9244864910727564  0.5674989805075793 1.0000   
         C         C         1.0       0.5222661867840959  0.44995740094509046           0.46108371240149376          1.0000   
         C         C         1.0       0.5190580809946156  0.45135408788119397           0.5123343083653445 1.0000   
         H         H         1.0       0.49771991153069656           0.42259622586207135          0.45331851482523877          1.0000   
         H         H         1.0       0.5566941074439163  0.4353583982568822  0.45477290367634937          1.0000   
         H         H         1.0       0.49718070080794496           0.4802250191099295 0.5173615978290629 1.0000   
         H         H         1.0       0.5550540235434108  0.4631738489132169  0.521081688663742  1.0000   
         C         C         1.0       0.2604481119854165  0.7052686358840391  0.8382688774066543 1.0000   
         C         C         1.0       0.2674728008231258  0.7251573439919159  0.880772567870878  1.0000   
         H         H         1.0       0.2813936982599895  0.7252169812383769  0.8120145664454168 1.0000   
         H         H         1.0       0.27497414295515793           0.6707536515273903 0.8419205066897802 1.0000   
         H         H         1.0       0.24911078019945823           0.7012542914446208 0.911760288888263  1.0000   
         H         H         1.0       0.25487915344934253           0.7622400178031381 0.8755974369639974 1.0000   
         C         C         1.0       0.7743880848214688  0.7645290397035013  0.926495128249125  1.0000   
         C         C         1.0       0.7820032675464278  0.735137754127963   0.8910549687118885 1.0000   
         H         H         1.0       0.7865360530488108  0.7980104114417174  0.9109319669924033 1.0000   
         H         H         1.0       0.799111796759422   0.7576960971323977  0.9556782001214267 1.0000   
         H         H         1.0       0.7716824843803519  0.6996502750937609  0.9028361389470511 1.0000   
         H         H         1.0       0.7607167009028195  0.7474968955732831  0.8619286758642181 1.0000   
         C         C         1.0       0.07868073371290835           0.7754441238891052 0.5483502667543442 1.0000   
         C         C         1.0       0.07785725452647871           0.723807014771436  0.5628098252474354 1.0000   
         H         H         1.0       0.11306272002706272           0.7920315882266993 0.5442004780846937 1.0000   
         H         H         1.0       0.06423597549295937           0.7953098362905581 0.5735439093153922 1.0000   
         H         H         1.0       0.10948849657895669           0.7084733813917897 0.5497895959887724 1.0000   
         H         H         1.0       0.050341774807884626          0.7076664072174892 0.5462496958365035 1.0000   
         C         C         1.0       0.05533291258237287           0.7025316947185388 0.0709405795895313 1.0000   
         C         C         1.0       0.06616278615942955           0.7484124677905384 0.04109128607009394          1.0000   
         H         H         1.0       0.07711980036327909           0.6756825236049931 0.062091238225138956         1.0000   
         H         H         1.0       0.01703647790226201           0.6971218548842615 0.06771120118972883          1.0000   
         H         H         1.0       0.10598431477073222           0.7494539805125767 0.04023592218000134          1.0000   
         H         H         1.0       0.05249560261308872           0.7733402298596932 0.05823452968634904          1.0000   
         C         C         1.0       0.26606135268153436           0.6728539644639412 0.33022684173527456          1.0000   
         C         C         1.0       0.28637713208671894           0.6962780206756402 0.3680428138344976 1.0000   
         H         H         1.0       0.272035970052679   0.6346135700401974  0.3454612848171884 1.0000   
         H         H         1.0       0.28931768418258386           0.6790074427611248 0.30039612849055725          1.0000   
         H         H         1.0       0.26408249814424456           0.6870803691823787 0.39886618505971716          1.0000   
         H         H         1.0       0.28544355601000954           0.7322165309489029 0.3568494302606862 1.0000   
         C         C         1.0       0.7914886866948284  0.7119043096402998  0.4181528693797035 1.0000   
         C         C         1.0       0.7725705060286512  0.7377075472508504  0.45268946413903643          1.0000   
         H         H         1.0       0.768794210909173   0.7177465298656287  0.38822947442878947          1.0000   
         H         H         1.0       0.7864534840515999  0.6741968471856484  0.4302719447704314 1.0000   
         H         H         1.0       0.7915666648577296  0.7706445297953951  0.4512206552132229 1.0000   
         H         H         1.0       0.7847467765042765  0.7164891469734628  0.48616379199549026          1.0000   
         C         C         1.0       0.2438600133749379  0.1946336270012129  0.6443225914442331 1.0000   
         C         C         1.0       0.2729468808893846  0.19815893596659317           0.6000535480581181 1.0000   
         H         H         1.0       0.2644833653987527  0.20515523556823487           0.6708308199871686 1.0000   
         H         H         1.0       0.23508576170982162           0.15630560876436098          0.6565433945571548 1.0000   
         H         H         1.0       0.2548794634801549  0.22306027134966672           0.573972680197234  1.0000   
         H         H         1.0       0.2764849972447184  0.1678630101512911  0.5856657154513868 1.0000   
         C         C         1.0       0.7455841218746657  0.17856654428496868           0.6559787817054752 1.0000   
         C         C         1.0       0.7542884389504777  0.15375549173584668           0.6182056989962325 1.0000   
         H         H         1.0       0.7119999535952697  0.1673417305860071  0.6753368419830349 1.0000   
         H         H         1.0       0.7352395534074726  0.2150358179766399  0.643921037857436  1.0000   
         H         H         1.0       0.7670706119488864  0.118443235845222   0.6327352356885882 1.0000   
         H         H         1.0       0.7795831301876778  0.1682471875775344  0.5943480668164535 1.0000   
         C         C         1.0       0.01796371502001959           0.9612599426561727 0.8102243144942891 1.0000   
         C         C         1.0       0.0001260338583558238         0.988488724964906  0.7638395777488323 1.0000   
         H         H         1.0       0.00040388346241293505        0.9765783069721524 0.8358569847257005 1.0000   
         H         H         1.0       0.0543575567405616  0.9717304878364597  0.813739612270654  1.0000   
         H         H         1.0       0.972641801393045   0.9685570111044589  0.7524645782569472 1.0000   
         H         H         1.0       0.027349787790377323          0.9900611224788496 0.7398527145388062 1.0000   
         C         C         1.0       0.05874605455936407           0.46188935770703266          0.7491188414548186 1.0000   
         C         C         1.0       0.06686019449535346           0.45844180522593103          0.6995800645856084 1.0000   
         H         H         1.0       0.0795250760087142  0.4349154358511073  0.7724426571742311 1.0000   
         H         H         1.0       0.023001462530128913          0.4516761583606607 0.7580655954517397 1.0000   
         H         H         1.0       0.10040212808132239           0.4716301509580555 0.6875480262731349 1.0000   
         H         H         1.0       0.042898738481464305          0.4822545216355352 0.680264972172237  1.0000   
         C         C         1.0       0.9058713522271068  0.21204476057874347           0.9280440092835871 1.0000   
         C         C         1.0       0.9475421739130256  0.18558071221945008           0.9525723833503069 1.0000   
         H         H         1.0       0.9061441760293615  0.24922482391082637           0.924353727596868  1.0000   
         H         H         1.0       0.8718954010548748  0.20409700756132196           0.9452587094920639 1.0000   
         H         H         1.0       0.9544035662463174  0.1500796591638039  0.9452268014191657 1.0000   
         H         H         1.0       0.9786461089827958  0.20405201843441675           0.9405565685312877 1.0000   
         C         C         1.0       0.09342144296760681           0.27847151980879037          0.41039925378570585          1.0000   
         C         C         1.0       0.05106760051596022           0.2977229152085988 0.4332201175036097 1.0000   
         H         H         1.0       0.0958362221410021  0.24309718702407077           0.42546385905174966          1.0000   
         H         H         1.0       0.12276284340791899           0.2964500355132395 0.42242036630136254          1.0000   
         H         H         1.0       0.016209825773349718          0.279586587031141  0.42719865568027315          1.0000   
         H         H         1.0       0.04961014447688292           0.3316878060500706 0.41493599095393663          1.0000   
         C         C         1.0       0.22810246060091374           0.3019953567327538 0.10267727945861317          1.0000   
         C         C         1.0       0.22815244197480014           0.28579640412794477          0.057608597563353334         1.0000   
         H         H         1.0       0.24340152512457883           0.33608911239609945          0.09346789069301578          1.0000   
         H         H         1.0       0.2539210018037956  0.28279487160818106           0.12355267544507069          1.0000   
         H         H         1.0       0.20317971853525585           0.3067689252647256 0.03526569379098131          1.0000   
         H         H         1.0       0.21529002759935445           0.2510508895955273 0.06206975545793968          1.0000   
         C         C         1.0       0.728034433678364   0.26890198026649453           0.17887673757297434          1.0000   
         C         C         1.0       0.7644913283875423  0.24020090332064414           0.21025619692679043          1.0000   
         H         H         1.0       0.7458127612508576  0.2911448086109575  0.1536136160125054 1.0000   
         H         H         1.0       0.7124505680090085  0.2895352908839146  0.20231141089720617          1.0000   
         H         H         1.0       0.7757050713742242  0.2577339488003019  0.23581360795525266          1.0000   
         H         H         1.0       0.7464660353495133  0.2135064932451659  0.23183123115775672          1.0000   
         C         C         1.0       0.9733021581866071  0.9861237100895329  0.29275977738800435          1.0000   
         C         C         1.0       0.9767073188952137  0.9828019574028728  0.24490663864831   1.0000   
         H         H         1.0       0.9400197962288543  0.0013729597534601896        0.29606882562209463          1.0000   
         H         H         1.0       0.9981735046365782  0.009217137327050439         0.3054773232384463 1.0000   
         H         H         1.0       0.9503748854969052  0.9570850521468506  0.23646834846802398          1.0000   
         H         H         1.0       0.012265507699023135          0.9687416176214444 0.23603501572157637          1.0000   
         C         C         1.0       0.004831079439402641          0.49186488765531383          0.27213212662084135          1.0000   
         C         C         1.0       0.9909029661939783  0.48269148655581723           0.22627443589260693          1.0000   
         H         H         1.0       0.03297114265908152           0.4671825080654405 0.28660207240902297          1.0000   
         H         H         1.0       0.9744135638873302  0.48379740889610334           0.2961476971393322 1.0000   
         H         H         1.0       0.9535052539602246  0.48835919907516756           0.2195026796068887 1.0000   
         H         H         1.0       0.008404120871590592          0.5057139449762953 0.20028257333002625          1.0000

