data_0
_chemical_formula_structural 
                                        C6H4C38H24C6H4C38H24C6H4C38H24C6H4C38H24C6H4C38H24C6H4C38H24C6H4C38H24C6H4C38H24C2H4C2H4C2H4C2H4C2H4C2H4C2H4C2H4C2H4C2H4C2H4C2H4C2H4C2H4C2H4C2H4C2H4C2H4C2H4C2H4C2H4C2H4C2H4C2H4
_chemical_formula_sum                   'C400 H320'
_cell_length_a                          22.016362270439757
_cell_length_b                          22.80676006517024
_cell_length_c                          23.5920127849226
_cell_angle_alpha                       76.26630139509878
_cell_angle_beta                        90.33706945430485
_cell_angle_gamma                       90.5044542248353
_space_group_name_H-M_alt               'P 1'
_space_group_IT_number                  1
loop_
  _space_group_symop_operation_xyz
         'x, y, z' 
loop_
  _atom_site_type_symbol
  _atom_site_label
  _atom_site_symmetry_multiplicity
  _atom_site_fract_x
  _atom_site_fract_y
  _atom_site_fract_z
  _atom_site_occupancy
         C         C         1.0       0.9118996004865226  0.4489076411357568  0.44804610817015345          1.0000   
         C         C         1.0       0.9453754799649945  0.3953114303818666  0.4592185362289947 1.0000   
         C         C         1.0       0.9806654405003096  0.38494937198708534           0.4149925228345742 1.0000   
         C         C         1.0       0.9872373748474322  0.4278889641786285  0.3621947207700205 1.0000   
         C         C         1.0       0.9714804301342572  0.4872111907451151  0.36232046467729634          1.0000   
         C         C         1.0       0.9311930364001163  0.49769496787916734           0.4031985999382066 1.0000   
         H         H         1.0       0.9378425835961087  0.35521725031332557           0.4959213801266597 1.0000   
         H         H         1.0       0.0025372993487100537         0.3432183709550183 0.41613065090007106          1.0000   
         H         H         1.0       0.9813322060358272  0.5229610642082078  0.3249070120841761 1.0000   
         H         H         1.0       0.9113029403452894  0.5416013582921895  0.39348696395260835          1.0000   
         C         C         1.0       0.9248711450898056  0.45459502514155514           0.2497851474962327 1.0000   
         C         C         1.0       0.9862718068417378  0.44668794225462505           0.2477479930492346 1.0000   
         C         C         1.0       0.013769658551797459          0.4640823799050618 0.19347022862182112          1.0000   
         C         C         1.0       0.9803218566851504  0.48730940114817745           0.1431448949018106 1.0000   
         C         C         1.0       0.9198069191527095  0.49834863048574274           0.1492130691114979 1.0000   
         C         C         1.0       0.8931470954811137  0.4863896379328314  0.20221915986018937          1.0000   
         C         C         1.0       0.014571086533085476          0.40963089428333   0.3049985782055526 1.0000   
         C         C         1.0       0.003722058446110177          0.3410802165303559 0.29491115194060935          1.0000   
         C         C         1.0       0.04303304734961366           0.3114384552803495 0.2687336390703111 1.0000   
         C         C         1.0       0.038083341884064925          0.25083897460563165          0.2748859535906913 1.0000   
         C         C         1.0       0.9925191729916414  0.21830964720945856           0.30813002475043955          1.0000   
         C         C         1.0       0.9489112798072398  0.24891216535545765           0.33148905368946685          1.0000   
         C         C         1.0       0.9543425116267423  0.3098394064592495  0.32327262479528246          1.0000   
         C         C         1.0       0.11226348326674439           0.46909499233493507          0.2879580902180093 1.0000   
         C         C         1.0       0.17444436294039142           0.4728416010762797 0.29681410108039363          1.0000   
         C         C         1.0       0.2086595082259663  0.431389319753347   0.3317560260987348 1.0000   
         C         C         1.0       0.17557810372910826           0.37982711109474515          0.3629579349819784 1.0000   
         C         C         1.0       0.11522742203545307           0.37074845561663045          0.35204270622526157          1.0000   
         C         C         1.0       0.08265826449965097           0.41780908308599524          0.3161918506257935 1.0000   
         C         C         1.0       0.2802482011063383  0.43721863066671746           0.33733109472393075          1.0000   
         C         C         1.0       0.289533207005686   0.35438649655770793           0.18816711420589444          1.0000   
         C         C         1.0       0.3008168125653777  0.4147256678891572  0.1830944788777688 1.0000   
         C         C         1.0       0.3036915160634184  0.4407280932020129  0.22934606906529265          1.0000   
         C         C         1.0       0.2992354945967287  0.40337901135386606           0.2865987804222032 1.0000   
         C         C         1.0       0.29104596793896076           0.34097188699149805          0.2897938740987363 1.0000   
         C         C         1.0       0.2857187874099241  0.3166258184162753  0.24158121401315127          1.0000   
         C         C         1.0       0.3016557550766012  0.4086295741853358  0.40243854875847773          1.0000   
         C         C         1.0       0.2760235878474099  0.43147644966439735           0.4454637157555782 1.0000   
         C         C         1.0       0.2856375777541951  0.4061567570732325  0.5024753612371342 1.0000   
         C         C         1.0       0.32303573099039284           0.3599167288070241 0.5186046893574604 1.0000   
         C         C         1.0       0.35087854460988166           0.3357773814229372 0.47757064383948744          1.0000   
         C         C         1.0       0.3396021792617959  0.3584968959435874  0.4205415014574805 1.0000   
         C         C         1.0       0.37131953705303755           0.5070910682877233 0.31619973716521593          1.0000   
         C         C         1.0       0.4006603238750603  0.5607495852821701  0.30693654791394354          1.0000   
         C         C         1.0       0.37034384855744823           0.6112565296599592 0.3096974457458507 1.0000   
         C         C         1.0       0.30976907204995174           0.6073892720311345 0.3219026386863801 1.0000   
         C         C         1.0       0.277642277079965   0.554133823460843   0.3294281381493139 1.0000   
         C         C         1.0       0.3120956503868577  0.5019571681286165  0.32921041782395477          1.0000   
         H         H         1.0       0.8971684787743389  0.4415355316699582  0.28927702069159306          1.0000   
         H         H         1.0       0.061946215927290105          0.4527866414609147 0.18893272493386123          1.0000   
         H         H         1.0       0.9991312944761375  0.5023438743358739  0.10277571770807925          1.0000   
         H         H         1.0       0.8429369061391453  0.49411061788560695           0.20498613408040617          1.0000   
         H         H         1.0       0.08372545097138229           0.3352855185695533 0.25108276663422774          1.0000   
         H         H         1.0       0.07814767771650755           0.229926895934234  0.259362460994401  1.0000   
         H         H         1.0       0.9088998067717236  0.2256194225188669  0.3493032828419493 1.0000   
         H         H         1.0       0.9139866066871571  0.3300101154335013  0.33269449290906733          1.0000   
         H         H         1.0       0.08648859812425447           0.5006286841561999 0.2545604883231365 1.0000   
         H         H         1.0       0.19355295382596963           0.5128089828654208 0.2667200039742912 1.0000   
         H         H         1.0       0.2005965127578651  0.3443977925597823  0.3898213262762598 1.0000   
         H         H         1.0       0.09795984582878604           0.32650921121784343          0.3770559217963653 1.0000   
         H         H         1.0       0.31233615122547326           0.44054686995559955          0.1386016833877668 1.0000   
         H         H         1.0       0.3029099012557618  0.49075923557056206           0.21787587283570387          1.0000   
         H         H         1.0       0.27993461076886433           0.31144247467124236          0.33006783937228074          1.0000   
         H         H         1.0       0.27632961319235605           0.2688217875452172 0.25066770437851726          1.0000   
         H         H         1.0       0.24422911290024135           0.4665476280584152 0.43593814781795304          1.0000   
         H         H         1.0       0.26439496324637024           0.4230270013004838 0.5341532834012576 1.0000   
         H         H         1.0       0.38137644058079695           0.2986783221079501 0.4917088917246326 1.0000   
         H         H         1.0       0.35810917650326896           0.33766129781411   0.3888790257971033 1.0000   
         H         H         1.0       0.40112027351633406           0.4731417106322537 0.3091012851353293 1.0000   
         H         H         1.0       0.44765272267272777           0.5594623072645354 0.3008526066116828 1.0000   
         H         H         1.0       0.286025469657047   0.6484304550601273  0.3241366327034083 1.0000   
         H         H         1.0       0.2336055774524688  0.5572604489153697  0.34190496495105877          1.0000   
         C         C         1.0       0.9255968895775416  0.1574707169544827  0.9313211736126643 1.0000   
         C         C         1.0       0.9090844014634906  0.18907920884957008           0.8745680095472461 1.0000   
         C         C         1.0       0.9074285490621402  0.24989474752363608           0.8605673166904505 1.0000   
         C         C         1.0       0.9196505103444566  0.28393743245250486           0.9039143891072147 1.0000   
         C         C         1.0       0.9296133485964064  0.25116701002361613           0.9606591112082049 1.0000   
         C         C         1.0       0.9393603463384361  0.18979867763682057           0.9713783605838618 1.0000   
         H         H         1.0       0.900056195641899   0.16278259990623847           0.8430158389729119 1.0000   
         H         H         1.0       0.8989384301973914  0.2741522096599733  0.8141999939151571 1.0000   
         H         H         1.0       0.9375193170562001  0.27088973695594715           0.9991976654126006 1.0000   
         H         H         1.0       0.9523954936421337  0.16732596686866702           0.015599803376288746         1.0000   
         C         C         1.0       0.857749054593819   0.37558170826130877           0.9680747080321924 1.0000   
         C         C         1.0       0.9115366752935657  0.38861879439200625           0.9396595396713324 1.0000   
         C         C         1.0       0.9404409129859979  0.43945607116388025           0.9484910954307432 1.0000   
         C         C         1.0       0.9233349348278783  0.467857625699119   0.9895355818747945 1.0000   
         C         C         1.0       0.8738519983410591  0.4480835881809242  0.025768031571614003         1.0000   
         C         C         1.0       0.8421933879261894  0.4009624981663927  0.013103064829756983         1.0000   
         C         C         1.0       0.9277261048236062  0.3557902754345657  0.8888407552685557 1.0000   
         C         C         1.0       0.8799969233929208  0.38610606687808235           0.8382615251106806 1.0000   
         C         C         1.0       0.8951874454547804  0.44260107250540576           0.8042821423630399 1.0000   
         C         C         1.0       0.8657489974949766  0.4697751609718534  0.7533599086002092 1.0000   
         C         C         1.0       0.8114962531632958  0.4448914097683996  0.7426813887437216 1.0000   
         C         C         1.0       0.7906901306665292  0.3911708659226674  0.7816042440803314 1.0000   
         C         C         1.0       0.8252683070133817  0.3640619300128027  0.8268344667825334 1.0000   
         C         C         1.0       0.04189829091242325           0.3573273165129095 0.9140604262548319 1.0000   
         C         C         1.0       0.10138292287438455           0.3633166736364387 0.8991471849234847 1.0000   
         C         C         1.0       0.11886115046562441           0.3686432880027832 0.8441775280083116 1.0000   
         C         C         1.0       0.07766316811572826           0.37087293419104717          0.8023267818038351 1.0000   
         C         C         1.0       0.016567991961087714          0.36869531743458567          0.8151486447955762 1.0000   
         C         C         1.0       0.9974358128183631  0.362042938020605   0.8722718649392656 1.0000   
         C         C         1.0       0.18828527999947664           0.3701989829701103 0.8294664139414202 1.0000   
         C         C         1.0       0.21262181996494797           0.5614142385438475 0.8414866688486635 1.0000   
         C         C         1.0       0.21716231963395088           0.5148341499913178 0.8889798888665748 1.0000   
         C         C         1.0       0.21371205587882794           0.456821596341485  0.8818487143792749 1.0000   
         C         C         1.0       0.2027829665994619  0.44144107565005786           0.8295262228069401 1.0000   
         C         C         1.0       0.2014597045108919  0.4901351786802582  0.7796270418888487 1.0000   
         C         C         1.0       0.2054763381331246  0.5480998721292086  0.7862753602778851 1.0000   
         C         C         1.0       0.21261318144941996           0.3549909054907748 0.7694397171870337 1.0000   
         C         C         1.0       0.18267054478072245           0.31440731569532343          0.7409491733870608 1.0000   
         C         C         1.0       0.210888131203597   0.2951639068533537  0.6976166015087949 1.0000   
         C         C         1.0       0.2675454426583519  0.3118828782436541  0.6793442821607331 1.0000   
         C         C         1.0       0.29785220753402314           0.3495916381938578 0.7094552766828249 1.0000   
         C         C         1.0       0.2719470370712072  0.37380916773395545           0.7501441189700226 1.0000   
         C         C         1.0       0.2839732435714315  0.3346648269850723  0.891190962592777  1.0000   
         C         C         1.0       0.31955907105811326           0.2916114292445635 0.9216452820056025 1.0000   
         C         C         1.0       0.30004446547253427           0.2302700051385004 0.9346899991075155 1.0000   
         C         C         1.0       0.2417600418191423  0.21738401260431822           0.9178566464681406 1.0000   
         C         C         1.0       0.20404827060107453           0.26289307836937426          0.8879277068371602 1.0000   
         C         C         1.0       0.22392091833730923           0.322164706348702  0.8735813498749199 1.0000   
         H         H         1.0       0.8301484415479562  0.3391111562062285  0.9565640516721534 1.0000   
         H         H         1.0       0.9786187907315449  0.4531053762225948  0.9186595389949973 1.0000   
         H         H         1.0       0.9439511518201035  0.5111807439840642  0.9900425520139451 1.0000   
         H         H         1.0       0.8002520678547284  0.3895690896025537  0.03578404005760527          1.0000   
         H         H         1.0       0.9355512543977857  0.4655311303280817  0.8116556053830124 1.0000   
         H         H         1.0       0.8827743424199259  0.5103418153844419  0.7250078636497141 1.0000   
         H         H         1.0       0.7497782310017684  0.3657771876639589  0.7728454930566606 1.0000   
         H         H         1.0       0.8092910503433467  0.325254247760273   0.8563424999604711 1.0000   
         H         H         1.0       0.028912055990842678          0.35208608548060816          0.9600796660927814 1.0000   
         H         H         1.0       0.1334794550321133  0.34888238285826595           0.9331524919028182 1.0000   
         H         H         1.0       0.08840467194843482           0.37865845967141526          0.7572572257419173 1.0000   
         H         H         1.0       0.9854140042388354  0.3653191366142134  0.7813666687471728 1.0000   
         H         H         1.0       0.22015896236009638           0.5231426113624094 0.9323311818360328 1.0000   
         H         H         1.0       0.216015630097181   0.4231268542025553  0.9201254406987038 1.0000   
         H         H         1.0       0.18779313175691348           0.4863805967175197 0.7405728572789728 1.0000   
         H         H         1.0       0.19661748744631846           0.5836648321386876 0.7512821207324394 1.0000   
         H         H         1.0       0.13828182316054147           0.2908249729069124 0.752481151058622  1.0000   
         H         H         1.0       0.18361845526440174           0.2745572579579345 0.6726129678221472 1.0000   
         H         H         1.0       0.34184311670711853           0.3668370793709286 0.6908020848895557 1.0000   
         H         H         1.0       0.29894988976353193           0.4016265371563222 0.7690081988476609 1.0000   
         H         H         1.0       0.3045558341539999  0.3779284941296304  0.8795857248754845 1.0000   
         H         H         1.0       0.36732294257805753           0.3009903230883861 0.9355167984748936 1.0000   
         H         H         1.0       0.22728238570328846           0.17267240960932906          0.9266936805919217 1.0000   
         H         H         1.0       0.1612582625266173  0.2521182555747809  0.8704737785537164 1.0000   
         C         C         1.0       0.9356547854493438  0.7204643976590505  0.48386418529872455          1.0000   
         C         C         1.0       0.9198308903860559  0.7657054515696606  0.4379004426915424 1.0000   
         C         C         1.0       0.9455108464293911  0.823142503516751   0.4333440737271705 1.0000   
         C         C         1.0       0.9955791548246979  0.8317772666423229  0.4686926622189621 1.0000   
         C         C         1.0       0.01801854389690094           0.7786609730694488 0.5071656216536828 1.0000   
         C         C         1.0       0.9852903196458075  0.7247168460762675  0.5166517895453205 1.0000   
         H         H         1.0       0.8820015117792319  0.7570578952358301  0.4111381792509091 1.0000   
         H         H         1.0       0.92742237188808    0.8611702170587633  0.4038322025551353 1.0000   
         H         H         1.0       0.05487748085754496           0.7761536316618065 0.5352607020711319 1.0000   
         H         H         1.0       0.0036737925766596735         0.6836386668028694 0.5445402367465105 1.0000   
         C         C         1.0       0.9864950702893709  0.8878637701436556  0.5695945794645874 1.0000   
         C         C         1.0       0.03389664704187356           0.9042289038210383 0.5294410074568763 1.0000   
         C         C         1.0       0.08298884972811882           0.9335388539907166 0.5487735183110729 1.0000   
         C         C         1.0       0.08307723797756505           0.9521310649798557 0.6001706323314384 1.0000   
         C         C         1.0       0.03683655536337227           0.9344773017757684 0.6404152115142641 1.0000   
         C         C         1.0       0.9884066985644333  0.9028145415918102  0.623032436142714  1.0000   
         C         C         1.0       0.02801125307198249           0.8948697961476463 0.463267757486732  1.0000   
         C         C         1.0       0.9910823441870471  0.9496980020148212  0.4228362581645423 1.0000   
         C         C         1.0       0.9541573087129067  0.9871624604635806  0.44518719703316245          1.0000   
         C         C         1.0       0.9280973015762791  0.03881704294167765           0.41186319112561676          1.0000   
         C         C         1.0       0.9390828040315752  0.05284640047891198           0.353066246614704  1.0000   
         C         C         1.0       0.9723281062226029  0.013262672981535273         0.32819036946575575          1.0000   
         C         C         1.0       0.9951634800911556  0.9608249204437499  0.36102749289875924          1.0000   
         C         C         1.0       0.12902018069264046           0.8373663803086192 0.43682913235934295          1.0000   
         C         C         1.0       0.19010579454476376           0.8381268492128066 0.42769986540039706          1.0000   
         C         C         1.0       0.21998250018020862           0.8919647718646074 0.4086153928882627 1.0000   
         C         C         1.0       0.18759767137439332           0.945217393736437  0.40316223340571233          1.0000   
         C         C         1.0       0.1262475333654553  0.9446792696169137  0.41871157197831554          1.0000   
         C         C         1.0       0.09540966006298701           0.8900748621221705 0.4366899738784314 1.0000   
         C         C         1.0       0.2914307034469159  0.8985355690287558  0.41349893625464634          1.0000   
         C         C         1.0       0.2998631777132065  0.8962059040956369  0.5997052280732905 1.0000   
         C         C         1.0       0.2982322894217286  0.8415921586309129  0.5829172507087961 1.0000   
         C         C         1.0       0.29796046388843145           0.8400011550674259 0.5250930205641943 1.0000   
         C         C         1.0       0.2996106911550249  0.8938775007114128  0.4826942851313099 1.0000   
         C         C         1.0       0.2917512568787614  0.9473713216730607  0.4998972390388029 1.0000   
         C         C         1.0       0.2894597627319164  0.9483169349760088  0.5579410588359509 1.0000   
         C         C         1.0       0.3201697500764299  0.9516862432080772  0.3662631667234744 1.0000   
         C         C         1.0       0.3005146798899223  0.9656408441567966  0.30808319400614764          1.0000   
         C         C         1.0       0.3300810715193798  0.009493781403161483         0.26339247625501966          1.0000   
         C         C         1.0       0.3745658170557302  0.04387848361715885           0.2800507265602609 1.0000   
         C         C         1.0       0.389042984831133   0.035634761400671566         0.33703429583352335          1.0000   
         C         C         1.0       0.3674774824621894  0.9878486768158927  0.37904815749474224          1.0000   
         C         C         1.0       0.3878235319742222  0.8297841208169672  0.4180026642758015 1.0000   
         C         C         1.0       0.4177201992208922  0.7795638710000076  0.40779872142836515          1.0000   
         C         C         1.0       0.39074508737383923           0.7465988810844519 0.37114199390601194          1.0000   
         C         C         1.0       0.33875029802872314           0.7654036698606039 0.3431140052437674 1.0000   
         C         C         1.0       0.3094323641850257  0.8135334400414905  0.35528154095302683          1.0000   
         C         C         1.0       0.33276653550077273           0.8465744941041676 0.3953187241907989 1.0000   
         H         H         1.0       0.9466086741243289  0.8696270173439754  0.5565590750099786 1.0000   
         H         H         1.0       0.12333087511545196           0.9479248705774792 0.522185655647702  1.0000   
         H         H         1.0       0.12283230146880261           0.9820655715372112 0.602694999994948  1.0000   
         H         H         1.0       0.9482360068482657  0.888129785983151   0.6514794351949444 1.0000   
         H         H         1.0       0.9401291451619951  0.9792339205410597  0.48923165369889243          1.0000   
         H         H         1.0       0.8929131075229044  0.061849000993336345         0.43202093522521656          1.0000   
         H         H         1.0       0.9870580337031095  0.026250786724518305         0.2836519856560926 1.0000   
         H         H         1.0       0.021381206984129264          0.9313681665396905 0.33958258614075626          1.0000   
         H         H         1.0       0.10845275960307534           0.7938557723446243 0.4465816239772569 1.0000   
         H         H         1.0       0.2121386050764929  0.7943619308354734  0.4425742094863558 1.0000   
         H         H         1.0       0.2043652002881534  0.9883311957208601  0.3926560871211325 1.0000   
         H         H         1.0       0.10836998057630698           0.9879192191402082 0.41966730283978826          1.0000   
         H         H         1.0       0.3003952615198722  0.8010733739672644  0.6178104785404847 1.0000   
         H         H         1.0       0.29235277220709327           0.8008893895924681 0.5106272515066307 1.0000   
         H         H         1.0       0.2840180122626359  0.9910750526786636  0.4688111826747953 1.0000   
         H         H         1.0       0.2911571479078363  0.9949830999092508  0.565871236842016  1.0000   
         H         H         1.0       0.26219586288127195           0.9409804703368477 0.2929433952496687 1.0000   
         H         H         1.0       0.31430925008960164           0.012839262538616447         0.22116290897676075          1.0000   
         H         H         1.0       0.42248858183496396           0.06660274361987861          0.350393835859986  1.0000   
         H         H         1.0       0.38542541986820195           0.9822861541176319 0.42126872026565615          1.0000   
         H         H         1.0       0.4089717157658184  0.8540833677622385  0.4464050500293049 1.0000   
         H         H         1.0       0.46139414386528493           0.7662225982144328 0.42825426946948275          1.0000   
         H         H         1.0       0.3245606060845452  0.7434950445273636  0.30864663318546426          1.0000   
         H         H         1.0       0.26389616935715576           0.8243648775720513 0.33707609652311504          1.0000   
         C         C         1.0       0.13677560334871575           0.8754019712730196 0.2535719626637163 1.0000   
         C         C         1.0       0.1889258487113583  0.8673661239712913  0.22778903664269556          1.0000   
         C         C         1.0       0.21439560707152405           0.9092446508896252 0.18349914524372557          1.0000   
         C         C         1.0       0.1794619222979772  0.9589435109799517  0.15695843100696094          1.0000   
         C         C         1.0       0.12873590377877941           0.971846401632722  0.18742056617307146          1.0000   
         C         C         1.0       0.10741319439143782           0.929202584553169  0.23415309238884618          1.0000   
         H         H         1.0       0.2123814739668004  0.8248125018101429  0.24007447794447279          1.0000   
         H         H         1.0       0.25829353566696667           0.899513681797823  0.1638313893818888 1.0000   
         H         H         1.0       0.10210247583636245           0.013894530375068381         0.1732658569847767 1.0000   
         H         H         1.0       0.06516007985630012           0.9364405946549107 0.2534121840237811 1.0000   
         C         C         1.0       0.21991429327617795           0.09048702954262167          0.1415057897566827 1.0000   
         C         C         1.0       0.24122368533269678           0.048529255465132426         0.11341381186304234          1.0000   
         C         C         1.0       0.3048061122569378  0.04801110960542587           0.10299672477604993          1.0000   
         C         C         1.0       0.34338588575573503           0.0849393962804521 0.12644528135603772          1.0000   
         C         C         1.0       0.3192430371331969  0.12080132739021687           0.1576946169979763 1.0000   
         C         C         1.0       0.257327065448949   0.12547954304479925           0.164262275379203  1.0000   
         C         C         1.0       0.1995630242017674  0.0025188458690093007        0.09363428324430001          1.0000   
         C         C         1.0       0.13509654493631484           0.026681782584504266         0.06046883121564517          1.0000   
         C         C         1.0       0.13016715703110746           0.08686604716523294          0.029965958103503443         1.0000   
         C         C         1.0       0.08576460396483321           0.10244291038121323          0.9849045951772802 1.0000   
         C         C         1.0       0.040012411643080226          0.060897363728458  0.9786809672282825 1.0000   
         C         C         1.0       0.04511596743771995           0.0017456412886200923        0.011577274636269452         1.0000   
         C         C         1.0       0.09050195768980918           0.9872614689968616 0.05068686695909719          1.0000   
         C         C         1.0       0.21956763173503346           0.9083132900766807 0.04882566672831534          1.0000   
         C         C         1.0       0.2414951192265226  0.8871013920671534  0.0027469437313221157        1.0000   
         C         C         1.0       0.26879755646628367           0.9230816640915722 0.9526504073291188 1.0000   
         C         C         1.0       0.27346361919552703           0.9827463269036625 0.9534801711376072 1.0000   
         C         C         1.0       0.252082283998589   0.004762410590476884         0.9973700074025242 1.0000   
         C         C         1.0       0.22519802623979457           0.9677941321060751 0.045840825990560496         1.0000   
         C         C         1.0       0.2782879165846011  0.8969053251170642  0.8950967651963312 1.0000   
         C         C         1.0       0.4503376943978408  0.9833696370975094  0.827032839908476  1.0000   
         C         C         1.0       0.4464790028675249  0.9371863211745691  0.8778090016237896 1.0000   
         C         C         1.0       0.3927509941106735  0.9123201051854273  0.9002036857732784 1.0000   
         C         C         1.0       0.33996543993206435           0.9288562333405863 0.8721120902981758 1.0000   
         C         C         1.0       0.3422880725660918  0.9790807084202457  0.8242021587194147 1.0000   
         C         C         1.0       0.3964396436611872  0.004998883922897823         0.8024003406657919 1.0000   
         C         C         1.0       0.22225421050004193           0.9184762272316028 0.8500229861102148 1.0000   
         C         C         1.0       0.16495087581568438           0.9353744074737264 0.8652116383645748 1.0000   
         C         C         1.0       0.11781513393034933           0.9361576586782994 0.8297063417818127 1.0000   
         C         C         1.0       0.12470699016978247           0.9176332284959332 0.7797426458096705 1.0000   
         C         C         1.0       0.1807573706410012  0.9061682516789773  0.7610858967714371 1.0000   
         C         C         1.0       0.22831329944891884           0.9063029158240825 0.7965710878125529 1.0000   
         C         C         1.0       0.3262613706670184  0.8011543389941774  0.8738882883452008 1.0000   
         C         C         1.0       0.32211929555661517           0.7421561064531925 0.869568771784663  1.0000   
         C         C         1.0       0.27196973373701244           0.7066874686670204 0.894619734751069  1.0000   
         C         C         1.0       0.23176646677959933           0.7290430805522011 0.925630959688573  1.0000   
         C         C         1.0       0.23359781556986217           0.7886812820845921 0.9267594489705095 1.0000   
         C         C         1.0       0.27933928165291216           0.827694051758035  0.8982753012263671 1.0000   
         H         H         1.0       0.17044325081944867           0.09628884108584623          0.14296354189897098          1.0000   
         H         H         1.0       0.32580519511984546           0.016795301881935343         0.0803282740559561 1.0000   
         H         H         1.0       0.3902183000112417  0.08146044259760798           0.11853231094456285          1.0000   
         H         H         1.0       0.23726332017498675           0.15646435515175083          0.18942699569295865          1.0000   
         H         H         1.0       0.16410181399929163           0.1208084081515366 0.0326697821562516 1.0000   
         H         H         1.0       0.09250295324150581           0.1463523113556051 0.9559436788837707 1.0000   
         H         H         1.0       0.015273184405304008          0.965395824446102  0.0030527468931962343        1.0000   
         H         H         1.0       0.0952248834240994  0.9390833153016087  0.07394713055973035          1.0000   
         H         H         1.0       0.19918144432765694           0.8744443383736826 0.08659678978403162          1.0000   
         H         H         1.0       0.24278557061859388           0.840361716243776  0.010664068385460856         1.0000   
         H         H         1.0       0.28704984221522944           0.0205483350216078 0.9195187098067727 1.0000   
         H         H         1.0       0.24955962342081062           0.051189751133717376         0.990749770079494  1.0000   
         H         H         1.0       0.4839547440726729  0.9184879392780935  0.9026564095183629 1.0000   
         H         H         1.0       0.3894484078136889  0.8747328430028672  0.9370812614076205 1.0000   
         H         H         1.0       0.3009001733327155  0.0009220061852093231        0.8050342636857784 1.0000   
         H         H         1.0       0.39938863398125835           0.037030006983832076         0.7594930783966098 1.0000   
         H         H         1.0       0.1547853929070666  0.9399506466194955  0.9078069461335126 1.0000   
         H         H         1.0       0.07039153333661163           0.9372955334541638 0.8477345170140593 1.0000   
         H         H         1.0       0.18354427373755072           0.8880199866137223 0.7236422895191729 1.0000   
         H         H         1.0       0.2741482809792509  0.8959833694089793  0.7866309016423229 1.0000   
         H         H         1.0       0.36329988054085716           0.82776220731786   0.8518494566322711 1.0000   
         H         H         1.0       0.3610655657581348  0.7262701961290003  0.846246395634652  1.0000   
         H         H         1.0       0.19268905539898729           0.70255395494383   0.9404204676865077 1.0000   
         H         H         1.0       0.19211961470054617           0.8023931097487471 0.9474749214642029 1.0000   
         C         C         1.0       0.4140418076917933  0.8646060802502865  0.6729491855723376 1.0000   
         C         C         1.0       0.4167285382153919  0.8036742123981194  0.6886298122264132 1.0000   
         C         C         1.0       0.45910858478756167           0.7735746838213007 0.6640791803145105 1.0000   
         C         C         1.0       0.5010920045085551  0.8044315058135121  0.6259031243658949 1.0000   
         C         C         1.0       0.5045564397227579  0.8660042522541403  0.6170599622423074 1.0000   
         C         C         1.0       0.45756421295042415           0.8956260966339589 0.6376740506806331 1.0000   
         H         H         1.0       0.381221699293433   0.7766690750365209  0.714337722206446  1.0000   
         H         H         1.0       0.45836571165057804           0.7244943307633696 0.6733361879158759 1.0000   
         H         H         1.0       0.5404813680856788  0.8958207091373365  0.5965968615832655 1.0000   
         H         H         1.0       0.46203896227818075           0.9435187749974442 0.6298781998084568 1.0000   
         C         C         1.0       0.536916587162868   0.8502346908310819  0.4936225356776738 1.0000   
         C         C         1.0       0.5753875253114199  0.8121223035537101  0.5330777407683901 1.0000   
         C         C         1.0       0.6332295481472744  0.8077265312331566  0.518007976060707  1.0000   
         C         C         1.0       0.6572446835799391  0.8365633405239213  0.46547694247338167          1.0000   
         C         C         1.0       0.6218270660799603  0.8749400141551529  0.4277550522351498 1.0000   
         C         C         1.0       0.5628808900487448  0.8818902248101377  0.4408363797198433 1.0000   
         C         C         1.0       0.5528198775508527  0.772240124262666   0.5945949110872234 1.0000   
         C         C         1.0       0.5294607308605318  0.7138912102247547  0.576559570317389  1.0000   
         C         C         1.0       0.5685341650220729  0.6649961698770999  0.5794974202866162 1.0000   
         C         C         1.0       0.5486614218486594  0.6126500971675516  0.5662090828918942 1.0000   
         C         C         1.0       0.4937471696625928  0.6141240769634616  0.5395040349519504 1.0000   
         C         C         1.0       0.4577603565475665  0.6657214599854347  0.5289167328776669 1.0000   
         C         C         1.0       0.47362299549310566           0.7125430403892421 0.5532516493652955 1.0000   
         C         C         1.0       0.642979083937459   0.8187088632139067  0.6450469764465627 1.0000   
         C         C         1.0       0.6978926926515593  0.8112717233684388  0.671438327640043  1.0000   
         C         C         1.0       0.7149195110194798  0.7551630758207564  0.7055211482038849 1.0000   
         C         C         1.0       0.6746868756633241  0.7071328703034907  0.7099802514349062 1.0000   
         C         C         1.0       0.6213652366548857  0.7162037482143426  0.6788820188767375 1.0000   
         C         C         1.0       0.6075103786034669  0.7692256573115135  0.6418283236288274 1.0000   
         C         C         1.0       0.7836256797195433  0.7455621726874428  0.7262616578604856 1.0000   
         C         C         1.0       0.8237794048976647  0.6955852208795917  0.5658153735333454 1.0000   
         C         C         1.0       0.8304429409243591  0.7549445132142855  0.5705072326705135 1.0000   
         C         C         1.0       0.8266024069895471  0.7687695456570816  0.6227906670191596 1.0000   
         C         C         1.0       0.8104754122770637  0.7254617283267145  0.6721071669187038 1.0000   
         C         C         1.0       0.8092179965269125  0.6660410464528512  0.6693252883121568 1.0000   
         C         C         1.0       0.8121655992378786  0.6514976192031599  0.6174475929367061 1.0000   
         C         C         1.0       0.7926683905371872  0.6971284661037184  0.7855765438354286 1.0000   
         C         C         1.0       0.7505363802416152  0.6868375125312272  0.8317513212778068 1.0000   
         C         C         1.0       0.7666882545229928  0.6609870175460448  0.8860030021757341 1.0000   
         C         C         1.0       0.8271851007501207  0.6496604644686611  0.8993265335431297 1.0000   
         C         C         1.0       0.8669478695887305  0.6532770637448749  0.8531210743998187 1.0000   
         C         C         1.0       0.8513594846093617  0.6762430462571709  0.7983933740303137 1.0000   
         C         C         1.0       0.8716991499296638  0.8199565504925957  0.7366068838270077 1.0000   
         C         C         1.0       0.8928691195811443  0.8647810983850722  0.7577039507498001 1.0000   
         C         C         1.0       0.8595993625291981  0.8969500728243271  0.7871054395959006 1.0000   
         C         C         1.0       0.7991631947352433  0.8843746502025988  0.7922133817974719 1.0000   
         C         C         1.0       0.7784905185954183  0.8345948889982947  0.7760619496642085 1.0000   
         C         C         1.0       0.811439787247932   0.803511789170202   0.7447185530779064 1.0000   
         H         H         1.0       0.49069492480890425           0.856749924841495  0.5031178595323335 1.0000   
         H         H         1.0       0.6583568780600312  0.7727054590619856  0.5476583569736951 1.0000   
         H         H         1.0       0.703943974745516   0.8363928940862231  0.4622221641421887 1.0000   
         H         H         1.0       0.532849001989069   0.9084299507727844  0.40811123933907806          1.0000   
         H         H         1.0       0.6131793538129533  0.6616618620388617  0.5953929289359026 1.0000   
         H         H         1.0       0.5791093646276506  0.575910449872928   0.5711386070999722 1.0000   
         H         H         1.0       0.4111009145200928  0.6730287002619338  0.5085098875071854 1.0000   
         H         H         1.0       0.44673781912464594           0.7547781332797544 0.5462600507420339 1.0000   
         H         H         1.0       0.6255683445383713  0.863027340165252   0.623418717717039  1.0000   
         H         H         1.0       0.7286012257754555  0.8474973625940632  0.659068383469947  1.0000   
         H         H         1.0       0.6855701576434027  0.6611196864271343  0.7322302935400554 1.0000   
         H         H         1.0       0.5964904172050397  0.6764850421703006  0.6818290507410921 1.0000   
         H         H         1.0       0.8388283307554244  0.7926606112211492  0.5334114442132584 1.0000   
         H         H         1.0       0.8395868589380484  0.8138415415030702  0.6246473966580545 1.0000   
         H         H         1.0       0.7915050007912066  0.6310098877607858  0.7048574087607455 1.0000   
         H         H         1.0       0.804345303992425   0.607167745036179   0.6128234365162973 1.0000   
         H         H         1.0       0.7037512918367822  0.7043258488687849  0.8255783453688359 1.0000   
         H         H         1.0       0.7335462446592445  0.6526520990891768  0.9206636257212387 1.0000   
         H         H         1.0       0.9144433414407993  0.6425929815898034  0.8682095234099927 1.0000   
         H         H         1.0       0.8874961037242691  0.6896251211940024  0.7659666945178528 1.0000   
         H         H         1.0       0.897222675162372   0.7960664083626391  0.7121470282111704 1.0000   
         H         H         1.0       0.9412121522161088  0.8759357447867286  0.7523047265013194 1.0000   
         H         H         1.0       0.7706478560258129  0.9081233748668156  0.8163497807517548 1.0000   
         H         H         1.0       0.7314217924327535  0.826582116085912   0.7822565273317543 1.0000   
         C         C         1.0       0.5994206856149598  0.9833999216336559  0.8654137848203589 1.0000   
         C         C         1.0       0.6096098319675393  0.0007363180576189787        0.9163299885542995 1.0000   
         C         C         1.0       0.642867996364423   0.9614776727179876  0.9580795538356348 1.0000   
         C         C         1.0       0.666763046641841   0.9078336434385251  0.9504121071169773 1.0000   
         C         C         1.0       0.6603559317052351  0.8948027638489073  0.8963346696069064 1.0000   
         C         C         1.0       0.6263679096120305  0.9330860175242344  0.8534474365687981 1.0000   
         H         H         1.0       0.5962758292528947  0.04416649012547458           0.9201819230528413 1.0000   
         H         H         1.0       0.6479667327053881  0.9756912559331146  0.9975802330062378 1.0000   
         H         H         1.0       0.6761676202842443  0.8539608713060685  0.8880876433894828 1.0000   
         H         H         1.0       0.6142052557123383  0.9214076221194624  0.8138150093554728 1.0000   
         C         C         1.0       0.747924866543852   0.7559611513040922  0.0259210623922721 1.0000   
         C         C         1.0       0.7467950599343657  0.8128183671861813  0.9886826921908358 1.0000   
         C         C         1.0       0.792736338551264   0.8289652928921603  0.9508923191193466 1.0000   
         C         C         1.0       0.8380452353553104  0.7896213496919752  0.9481556638890707 1.0000   
         C         C         1.0       0.8389071834639009  0.7343203857064451  0.9873483504573296 1.0000   
         C         C         1.0       0.7928839341114394  0.7167983712665293  0.026758154362170883         1.0000   
         C         C         1.0       0.6957328854782427  0.8585629183264124  0.004694538725471098         1.0000   
         C         C         1.0       0.6358665373791691  0.8254036719605198  0.035007036385067414         1.0000   
         C         C         1.0       0.6001715417052051  0.8432087198536321  0.07736224293062977          1.0000   
         C         C         1.0       0.5445617073731638  0.8125011500201216  0.09508918640504338          1.0000   
         C         C         1.0       0.5280457490997207  0.7650108325634424  0.07359829904673165          1.0000   
         C         C         1.0       0.5570630523251678  0.7509859376703694  0.029057650095785315         1.0000   
         C         C         1.0       0.6106455508624369  0.7833388015886995  0.005781570827033455         1.0000   
         C         C         1.0       0.77498901479121    0.9296652560228632  0.0307014450286327 1.0000   
         C         C         1.0       0.8103280532107866  0.9542733530896806  0.06549522519751294          1.0000   
         C         C         1.0       0.8113627692028904  0.9303870641122852  0.12568172980277992          1.0000   
         C         C         1.0       0.7747325189760589  0.8783309484578599  0.14437029232672383          1.0000   
         C         C         1.0       0.7368865908098312  0.8572366615237877  0.10759490840539132          1.0000   
         C         C         1.0       0.733665384955711   0.8844973295878342  0.049075994882557206         1.0000   
         C         C         1.0       0.8488500908088236  0.9553984579830731  0.1708110844727142 1.0000   
         C         C         1.0       0.9976138497542765  0.8295849251377436  0.23019429943018643          1.0000   
         C         C         1.0       0.9993184482219402  0.8706218202419059  0.17769768181775403          1.0000   
         C         C         1.0       0.9500266337687286  0.9081609703713589  0.15977790283035653          1.0000   
         C         C         1.0       0.8983690383711087  0.9040640532325924  0.1909588893680385 1.0000   
         C         C         1.0       0.8950896180287707  0.8550729704385568  0.2384021729396859 1.0000   
         C         C         1.0       0.9444107336193396  0.8215539511833683  0.2611500378105043 1.0000   
         C         C         1.0       0.8066361935138923  0.9665704138676068  0.2221656844334784 1.0000   
         C         C         1.0       0.7471921256510135  0.9855207606072893  0.20977799427086022          1.0000   
         C         C         1.0       0.7069837618930127  0.9899631822912338  0.2526972541291842 1.0000   
         C         C         1.0       0.7252211425568686  0.9758217634724486  0.31002104422309684          1.0000   
         C         C         1.0       0.785299796051215   0.9628169813172376  0.32244140054376286          1.0000   
         C         C         1.0       0.8276992421712898  0.962657558533367   0.2792975258128738 1.0000   
         C         C         1.0       0.933197622041932   0.036428986869502245         0.17492118594352654          1.0000   
         C         C         1.0       0.9581779240874424  0.09526017095766481           0.16042379911288454          1.0000   
         C         C         1.0       0.9246614970924578  0.14165009253613103           0.13111197568952582          1.0000   
         C         C         1.0       0.8734559781921885  0.1294874908483259  0.10307823847554398          1.0000   
         C         C         1.0       0.8490250801600966  0.07232923383090073           0.11707324312348377          1.0000   
         C         C         1.0       0.8769874412538642  0.022352770744251016         0.15424380646839886          1.0000   
         H         H         1.0       0.7109550818598275  0.7382976019215278  0.0575000068320366 1.0000   
         H         H         1.0       0.7944028452856525  0.8749681055992921  0.9250976337755583 1.0000   
         H         H         1.0       0.8747680683998615  0.8039799491113645  0.9215756611319805 1.0000   
         H         H         1.0       0.7877660024597299  0.6703305476436174  0.05276864345826171          1.0000   
         H         H         1.0       0.6128835501753187  0.878990892480914   0.09564840581451417          1.0000   
         H         H         1.0       0.514014741870517   0.8271882049821989  0.12188849407296165          1.0000   
         H         H         1.0       0.5391710083704332  0.7200268993230319  0.009032525518563927         1.0000   
         H         H         1.0       0.6363326374927923  0.7687033599317725  0.9727843127338158 1.0000   
         H         H         1.0       0.7764319643725439  0.9472287816573375  0.9858649551796492 1.0000   
         H         H         1.0       0.8392277355643162  0.9912921038356798  0.04668634128977467          1.0000   
         H         H         1.0       0.7796095560126716  0.8519608700278705  0.1884360206440552 1.0000   
         H         H         1.0       0.7092815480520538  0.8181192794394442  0.12807572598191475          1.0000   
         H         H         1.0       0.03893153069031774           0.8757807098979555 0.15105640127722353          1.0000   
         H         H         1.0       0.9560900140061659  0.9488383977532912  0.12220064395766839          1.0000   
         H         H         1.0       0.8543365088562521  0.8465691763209379  0.2622103717044394 1.0000   
         H         H         1.0       0.9404889649842599  0.7913180073482927  0.3053393436403329 1.0000   
         H         H         1.0       0.7259556082444116  0.9941819829729697  0.16577002028162754          1.0000   
         H         H         1.0       0.6588400142954509  0.9978171795742506  0.2439967552990737 1.0000   
         H         H         1.0       0.801873026619955   0.957540679434325   0.3655780877535788 1.0000   
         H         H         1.0       0.8729861061949561  0.9469742546472635  0.3002724042751823 1.0000   
         H         H         1.0       0.9546366890504562  0.001406953281412937         0.20620097491619793          1.0000   
         H         H         1.0       0.000261547120136818          0.10514579824605352          0.18000317765841503          1.0000   
         H         H         1.0       0.8492772747969131  0.16450139305461464           0.06903131010029573          1.0000   
         H         H         1.0       0.8050500360312748  0.06601947607108105           0.10448955363241463          1.0000   
         C         C         1.0       0.5091123451987007  0.6155360821792641  0.1434477393657334 1.0000   
         C         C         1.0       0.5321409150811844  0.5714908929364392  0.18900766651992457          1.0000   
         C         C         1.0       0.5499415349417467  0.5166786161951145  0.18178167547510196          1.0000   
         C         C         1.0       0.5466044885593396  0.5020673207794054  0.1277778478670124 1.0000   
         C         C         1.0       0.5226940950176051  0.5463877107324732  0.08271451763630266          1.0000   
         C         C         1.0       0.5064396871333338  0.6025479292879723  0.08919100831145133          1.0000   
         H         H         1.0       0.5329567147491067  0.584593360222563   0.23030787387135834          1.0000   
         H         H         1.0       0.5632011536818564  0.4829343036243218  0.22043000233853252          1.0000   
         H         H         1.0       0.5173390726087993  0.5354901396804737  0.039950320475201195         1.0000   
         H         H         1.0       0.4885982222410859  0.6349016622045149  0.051410797252245954         1.0000   
         C         C         1.0       0.6529993990651944  0.5012449222092494  0.04338172983378685          1.0000   
         C         C         1.0       0.6150010247903607  0.44746942846378623           0.060029907812566785         1.0000   
         C         C         1.0       0.6273911120925073  0.40427463121534746           0.030735532394826404         1.0000   
         C         C         1.0       0.6650728950735317  0.415537877654227   0.9831565200362093 1.0000   
         C         C         1.0       0.6947672315763962  0.4696505626591657  0.9628483455879038 1.0000   
         C         C         1.0       0.6927149620001128  0.5088216853116128  0.9977878871117353 1.0000   
         C         C         1.0       0.5712469102333404  0.43710035365739824           0.11699574261347291          1.0000   
         C         C         1.0       0.5079542555878116  0.40726143244959745           0.11379542117446985          1.0000   
         C         C         1.0       0.4804158228806399  0.4082556680230984  0.06122626132688458          1.0000   
         C         C         1.0       0.4302777440027697  0.3738675161369044  0.058795645097361016         1.0000   
         C         C         1.0       0.4002402059950517  0.3455320863060316  0.10909339456246349          1.0000   
         C         C         1.0       0.4285701398549334  0.3429853406722734  0.1616656504495442 1.0000   
         C         C         1.0       0.4782260310347461  0.37897530821233133           0.16308594741521912          1.0000   
         C         C         1.0       0.6591767502661927  0.42536911937626043           0.1898662874898896 1.0000   
         C         C         1.0       0.6946757806679323  0.39274861867964295           0.23319824374949283          1.0000   
         C         C         1.0       0.6881170909297185  0.328592417763473   0.2509816195983831 1.0000   
         C         C         1.0       0.6444376078789628  0.30028294756670815           0.22231667227072793          1.0000   
         C         C         1.0       0.6111490360118574  0.33371882780316797           0.17543424215874057          1.0000   
         C         C         1.0       0.6137529863673441  0.39746840241014136           0.1645867176616756 1.0000   
         C         C         1.0       0.7282205050425509  0.2855032039556005  0.3020717201406591 1.0000   
         C         C         1.0       0.8642569386589455  0.2555606239989211  0.1757501012015604 1.0000   
         C         C         1.0       0.8690879058972402  0.3063456145478193  0.20101696940131414          1.0000   
         C         C         1.0       0.8281902452953191  0.3150297702688049  0.24143721063460433          1.0000   
         C         C         1.0       0.7818700430136851  0.2725914124715625  0.2612656995324056 1.0000   
         C         C         1.0       0.7757415368741872  0.22305870910084416           0.23573661167229787          1.0000   
         C         C         1.0       0.8169009237375915  0.21708301533925706           0.19388103227896275          1.0000   
         C         C         1.0       0.6951406300549512  0.2256807256116635  0.34256131160328207          1.0000   
         C         C         1.0       0.6345050605458974  0.22563039496405926           0.35866595566863874          1.0000   
         C         C         1.0       0.6084168275782489  0.17476680931101463           0.39432065166205915          1.0000   
         C         C         1.0       0.643323919855621   0.12612266733182562           0.4179562401853274 1.0000   
         C         C         1.0       0.6997999199866531  0.12370729441304727           0.39451345480415845          1.0000   
         C         C         1.0       0.7269198367867405  0.1748046220788828  0.3626611954680601 1.0000   
         C         C         1.0       0.8009761183304066  0.29740022250876874           0.38288635975355056          1.0000   
         C         C         1.0       0.8201339920239632  0.32151120466985494           0.4273108509027965 1.0000   
         C         C         1.0       0.7910180841633847  0.3695175123614894  0.4406921736001669 1.0000   
         C         C         1.0       0.7370118444212993  0.3870487996003238  0.41353072622922227          1.0000   
         C         C         1.0       0.7162859433196875  0.3608673559878824  0.37015251253192943          1.0000   
         C         C         1.0       0.7492290186368594  0.3156956733814776  0.351239833799126  1.0000   
         H         H         1.0       0.6392949152552947  0.5394827240459058  0.05759786375978604          1.0000   
         H         H         1.0       0.6038235546590569  0.363279306529468   0.039414897656664394         1.0000   
         H         H         1.0       0.6592820316013228  0.38355645055573767           0.9586237226557933 1.0000   
         H         H         1.0       0.7141723083694941  0.5531500397220261  0.980151462288083  1.0000   
         H         H         1.0       0.504728178007998   0.43027582096832045           0.02028070556490125          1.0000   
         H         H         1.0       0.4083332787289211  0.37146587768289696           0.017328327627546658         1.0000   
         H         H         1.0       0.41018412899540124           0.31799841197355827          0.2038921779554399 1.0000   
         H         H         1.0       0.4971060739559577  0.37841414656799127           0.20402012373239087          1.0000   
         H         H         1.0       0.6666249762777373  0.4749299686357743  0.17714855288395537          1.0000   
         H         H         1.0       0.7291833522782992  0.41406292716586224           0.25358732911911747          1.0000   
         H         H         1.0       0.6414028896005107  0.24949204969797129           0.23434143406846794          1.0000   
         H         H         1.0       0.5780011149417379  0.31113927491101134           0.15720578815273978          1.0000   
         H         H         1.0       0.9024368946024766  0.3426371390334789  0.18757294744473077          1.0000   
         H         H         1.0       0.829457029562894   0.3572522373855614  0.2552481990919955 1.0000   
         H         H         1.0       0.735081259389843   0.19512657771873165           0.24274107750829302          1.0000   
         H         H         1.0       0.8139345608109134  0.1784327989857466  0.17311883565455893          1.0000   
         H         H         1.0       0.6044724283045773  0.2626175458490777  0.33725590889977763          1.0000   
         H         H         1.0       0.5583091873366723  0.17862785625416897           0.40921401397279156          1.0000   
         H         H         1.0       0.728298419982564   0.08604983324225655           0.4065181525539857 1.0000   
         H         H         1.0       0.7695362194045788  0.167622347848366   0.342763036433528  1.0000   
         H         H         1.0       0.822361957929737   0.2577718429436463  0.3736376942173727 1.0000   
         H         H         1.0       0.8605349828868192  0.30517634223405204           0.45386126591900444          1.0000   
         H         H         1.0       0.710951757602169   0.4176591658216609  0.42891323656717073          1.0000   
         H         H         1.0       0.6738584915317176  0.37640846916459847           0.3487154048067889 1.0000   
         C         C         1.0       0.425523314767342   0.21150560011514138           0.8890832702700938 1.0000   
         C         C         1.0       0.4786635217408464  0.22945107054080457           0.9124932193642755 1.0000   
         C         C         1.0       0.5105688816308255  0.2753867863704914  0.8748951372474065 1.0000   
         C         C         1.0       0.4965865667637639  0.30234955023258675           0.8170515272598853 1.0000   
         C         C         1.0       0.44069133772847885           0.2833082935899274 0.7998892847978637 1.0000   
         C         C         1.0       0.40477140318888044           0.23870232847316436          0.8326316138704449 1.0000   
         H         H         1.0       0.48816748940012916           0.20867517741037592          0.9592017956595728 1.0000   
         H         H         1.0       0.5518447513126976  0.2930800095408837  0.8905479477202123 1.0000   
         H         H         1.0       0.42415388637436474           0.30508851274007476          0.7540312936374143 1.0000   
         H         H         1.0       0.3643590623735834  0.22173265032545145           0.8173479700918852 1.0000   
         C         C         1.0       0.6333471764646398  0.4176372309474202  0.7749697653627324 1.0000   
         C         C         1.0       0.5790897813452326  0.3948967100633919  0.7978715647533742 1.0000   
         C         C         1.0       0.5478270249972146  0.4223649602782534  0.8375997831035596 1.0000   
         C         C         1.0       0.577808800038298   0.47012254809550763           0.8554162144362818 1.0000   
         C         C         1.0       0.6349676623825898  0.4878221520752083  0.8335936564509052 1.0000   
         C         C         1.0       0.6617757189334978  0.46329472280926964           0.7923043498428826 1.0000   
         C         C         1.0       0.5446181943204352  0.34607885525720444           0.7727963416145441 1.0000   
         C         C         1.0       0.5126317390674533  0.38998013229604467           0.7135324751284507 1.0000   
         C         C         1.0       0.5393513520254788  0.40670589124094914           0.6590920286267319 1.0000   
         C         C         1.0       0.5149611787178622  0.4482822220133991  0.6126083380448931 1.0000   
         C         C         1.0       0.4599579696528278  0.4764835359830012  0.6161648001740548 1.0000   
         C         C         1.0       0.4331044425589201  0.4604957843122941  0.6706756952508551 1.0000   
         C         C         1.0       0.45729437429197495           0.4200881733967845 0.7184405081716917 1.0000   
         C         C         1.0       0.6393998788168769  0.2755047351205706  0.7899931010718356 1.0000   
         C         C         1.0       0.6795040778239229  0.23630839777729454           0.7732332849525246 1.0000   
         C         C         1.0       0.6677247865550254  0.2136462587395888  0.7235409350281636 1.0000   
         C         C         1.0       0.6100805088454697  0.22658947859344208           0.6964781342591859 1.0000   
         C         C         1.0       0.572011035366165   0.26740194254967437           0.7124649142076996 1.0000   
         C         C         1.0       0.5879039901767052  0.2961079274067944  0.7579057517129678 1.0000   
         C         C         1.0       0.7220190414155861  0.18898176330514355           0.6916143479365425 1.0000   
         C         C         1.0       0.7814614890713053  0.3769321387634766  0.6440454904642258 1.0000   
         C         C         1.0       0.8211627086168483  0.33380876799836257           0.6732400499933323 1.0000   
         C         C         1.0       0.8032694100609573  0.27260011347985164           0.6874991359285686 1.0000   
         C         C         1.0       0.753101454524589   0.2534305381377282  0.6635326505613156 1.0000   
         C         C         1.0       0.7218213245266687  0.29795796845290984           0.6220544381808544 1.0000   
         C         C         1.0       0.7340909581514957  0.35809769255342483           0.6156412724874728 1.0000   
         C         C         1.0       0.6962962174805404  0.15450066026639228           0.6436080734979989 1.0000   
         C         C         1.0       0.6535076603938406  0.10853412294121864           0.6534539137036857 1.0000   
         C         C         1.0       0.6450720756376369  0.07253637602174969           0.6160977985931392 1.0000   
         C         C         1.0       0.6697073882823419  0.08849726621380972           0.5612902861799347 1.0000   
         C         C         1.0       0.7065505092121362  0.13791465100567768           0.5476704833589645 1.0000   
         C         C         1.0       0.7235521121258588  0.16929159792259726           0.5883501610130022 1.0000   
         C         C         1.0       0.8157590044703684  0.1246669280024177  0.716781286768095  1.0000   
         C         C         1.0       0.8490985875219306  0.08032623942226921           0.7472545682038418 1.0000   
         C         C         1.0       0.826401331569708   0.04040832062926935           0.796415940361287  1.0000   
         C         C         1.0       0.7698040707369077  0.05086581074154295           0.8140474049954195 1.0000   
         C         C         1.0       0.7354623996875598  0.09902159612519698           0.7823162375308601 1.0000   
         C         C         1.0       0.7598762119452945  0.1382744379060603  0.7339085606297525 1.0000   
         H         H         1.0       0.6544956209932234  0.40311599785509833           0.739011765323205  1.0000   
         H         H         1.0       0.5036387382264751  0.4110828809647907  0.8602079128058119 1.0000   
         H         H         1.0       0.5596149097355314  0.488374312505477   0.8904267846471853 1.0000   
         H         H         1.0       0.7029441896432871  0.4807642749658953  0.7684625247574542 1.0000   
         H         H         1.0       0.5791421516192722  0.38406053902979337           0.6537345984190647 1.0000   
         H         H         1.0       0.5340885503697567  0.4565176070464279  0.5701327042478946 1.0000   
         H         H         1.0       0.3949227584109072  0.4834879647554443  0.679884639531551  1.0000   
         H         H         1.0       0.43449731698646465           0.4090505373767675 0.7598287129526741 1.0000   
         H         H         1.0       0.6547004065629289  0.2917568136031975  0.8259764883221283 1.0000   
         H         H         1.0       0.7195800702161599  0.22715329769105172           0.7975917526482406 1.0000   
         H         H         1.0       0.6027537566520003  0.21898171127545393           0.6541382678588751 1.0000   
         H         H         1.0       0.529728918560224   0.2765237339334229  0.6876540192090588 1.0000   
         H         H         1.0       0.8598107306195045  0.34552745122786305           0.6995656289236704 1.0000   
         H         H         1.0       0.8296145758815879  0.24505546253005409           0.7221096792170433 1.0000   
         H         H         1.0       0.6764250028667815  0.28765770704045723           0.6048913361325214 1.0000   
         H         H         1.0       0.6980891836298561  0.3901565140448899  0.5929854598131115 1.0000   
         H         H         1.0       0.6283978144978669  0.09491385440700008           0.6949998383826392 1.0000   
         H         H         1.0       0.6101822063518327  0.03727023231603187           0.6230351118616316 1.0000   
         H         H         1.0       0.7285882920291558  0.15276718777241372           0.5039780364717639 1.0000   
         H         H         1.0       0.7578404853936592  0.20681585230135074           0.5741989163837339 1.0000   
         H         H         1.0       0.8375387235123718  0.1515072487038291  0.6786316557438185 1.0000   
         H         H         1.0       0.8952382353407642  0.076757808451005   0.7318851705803375 1.0000   
         H         H         1.0       0.7501533818511646  0.02234198074739584           0.8514927712220131 1.0000   
         H         H         1.0       0.6882752005294404  0.10454942556182224           0.7957163374135444 1.0000   
         C         C         1.0       0.721006384062934   0.48808465664995676           0.902198778424056  1.0000   
         C         C         1.0       0.6780292059941733  0.5265156785468176  0.858232833633567  1.0000   
         H         H         1.0       0.764601667333092   0.5121727215439013  0.9066942463112132 1.0000   
         H         H         1.0       0.7349041160495754  0.44309305047612896           0.8882093853255217 1.0000   
         H         H         1.0       0.7020660360884257  0.5629953150360235  0.8255930251412211 1.0000   
         H         H         1.0       0.6495222705393529  0.5543694549317708  0.8809155980944096 1.0000   
         C         C         1.0       0.6146830475510018  0.07207146855761114           0.463787966783822  1.0000   
         C         C         1.0       0.6576316469714895  0.049301192816526326         0.5155283252249684 1.0000   
         H         H         1.0       0.6057748652787411  0.03374569273160131           0.4438907948820015 1.0000   
         H         H         1.0       0.5678637758612333  0.08448739134960583           0.47715433168452476          1.0000   
         H         H         1.0       0.700314463277164   0.032128706893851576         0.5018410957367027 1.0000   
         H         H         1.0       0.644285314358788   0.0057895355477506  0.5437314418808022 1.0000   
         C         C         1.0       0.949609425243708   0.2004921508136317  0.13270817717649752          1.0000   
         C         C         1.0       0.9022032197129534  0.2530505194676824  0.12295915168873141          1.0000   
         H         H         1.0       0.973623270892872   0.2119659752292015  0.09305206821580425          1.0000   
         H         H         1.0       0.9787441777946241  0.2010232782005883  0.17197577604161896          1.0000   
         H         H         1.0       0.8734851727898817  0.2506955810414122  0.08644667660255624          1.0000   
         H         H         1.0       0.9243143521239781  0.2982085664383727  0.10288182764190525          1.0000   
         C         C         1.0       0.48263322336514125           0.6772693204193825 0.14969634738130688          1.0000   
         C         C         1.0       0.4684915192404194  0.7309662423599151  0.09704884954538029          1.0000   
         H         H         1.0       0.5108105276849346  0.6939836704513246  0.18380977674694665          1.0000   
         H         H         1.0       0.43868454275401275           0.6682221653895497 0.16894518041623474          1.0000   
         H         H         1.0       0.43807744847664515           0.762480928483907  0.10914238096019035          1.0000   
         H         H         1.0       0.43835280094547024           0.7208830552535157 0.061558471787519276         1.0000   
         C         C         1.0       0.8558024908644626  0.6340670304812049  0.9620077462564162 1.0000   
         C         C         1.0       0.8860531208130855  0.6861043826617985  0.9838033232516187 1.0000   
         H         H         1.0       0.8913373867886204  0.5999872866265534  0.9637229334217073 1.0000   
         H         H         1.0       0.8208674138488433  0.6124919004401428  0.9914866902520211 1.0000   
         H         H         1.0       0.92308684309068    0.7010086488047208  0.955038289217801  1.0000   
         H         H         1.0       0.9055369219110704  0.6660471743122232  0.02744003302244824          1.0000   
         C         C         1.0       0.6417256718192806  0.9036262710722752  0.3663070162274847 1.0000   
         C         C         1.0       0.6781716960201711  0.9648703571231332  0.35864379471304964          1.0000   
         H         H         1.0       0.6709763868488339  0.8729597973765355  0.3502050599193845 1.0000   
         H         H         1.0       0.6062227070107044  0.9080772863218868  0.33260260757073307          1.0000   
         H         H         1.0       0.646201288580278   0.002828063523080626         0.35140690899827354          1.0000   
         H         H         1.0       0.6947821824203776  0.9663270541831477  0.4036594676020265 1.0000   
         C         C         1.0       0.893299586813986   0.9439180641859581  0.8131865831860643 1.0000   
         C         C         1.0       0.8633463866693646  0.9919803849470274  0.8392274786069708 1.0000   
         H         H         1.0       0.9227761280048953  0.9178306560708438  0.8460939885554388 1.0000   
         H         H         1.0       0.9229473067127345  0.970328404649339   0.7779941507666531 1.0000   
         H         H         1.0       0.8348626292994717  0.9696155529158916  0.8806628386955309 1.0000   
         H         H         1.0       0.9010578362694901  0.01621276177841957           0.8543792308325625 1.0000   
         C         C         1.0       0.47022889948976243           0.5609730425820956 0.5200825726164527 1.0000   
         C         C         1.0       0.4300981236920277  0.5221274449936121  0.5651028705540577 1.0000   
         H         H         1.0       0.44358476007377917           0.5779221518249383 0.47968835327612586          1.0000   
         H         H         1.0       0.5067023911544457  0.5364061172902297  0.5047684329166515 1.0000   
         H         H         1.0       0.3990664201411066  0.4973023431807121  0.5449688765575155 1.0000   
         H         H         1.0       0.39576762028996604           0.5498181030151099 0.5823179913039029 1.0000   
         C         C         1.0       0.5085142449903659  0.9953403267849285  0.7902642563449256 1.0000   
         C         C         1.0       0.5622947056863434  0.025476808834945075         0.8176427081304993 1.0000   
         H         H         1.0       0.49698292084263546           0.019936805690753623         0.7463539004542475 1.0000   
         H         H         1.0       0.523862901760551   0.9529793595654132  0.7820032089343271 1.0000   
         H         H         1.0       0.5426434856087552  0.06228554994739266           0.8329094520997627 1.0000   
         H         H         1.0       0.5910758330825499  0.05298700468093842           0.7842310290698378 1.0000   
         C         C         1.0       0.053399460644022234          0.7903234279371084 0.2542021844947553 1.0000   
         C         C         1.0       0.09963407847621064           0.8211642357294018 0.2926294570570196 1.0000   
         H         H         1.0       0.03838563400802686           0.7467853172414174 0.2765986192652661 1.0000   
         H         H         1.0       0.07345130589840498           0.7816489976596295 0.2158716951723214 1.0000   
         H         H         1.0       0.07689322219232486           0.8335604661817143 0.32691820453749676          1.0000   
         H         H         1.0       0.1282602340777561  0.7867479663748685  0.31443569794056647          1.0000   
         C         C         1.0       0.04138487374914113           0.9491406974879957 0.6985891242226926 1.0000   
         C         C         1.0       0.06909985227083193           0.8974318079053301 0.7483524642384882 1.0000   
         H         H         1.0       0.06952130568463444           0.9956955790440583 0.6873335540647968 1.0000   
         H         H         1.0       0.9976116818480649  0.9583233594947854  0.7101597482195668 1.0000   
         H         H         1.0       0.07708711183149819           0.8567304707699431 0.7302164427620078 1.0000   
         H         H         1.0       0.03637890920384489           0.8738973861107281 0.7806279234612705 1.0000   
         C         C         1.0       0.4051355081761418  0.09371910222580548           0.23410618491248308          1.0000   
         C         C         1.0       0.36500328824041123           0.1448991507448505 0.19658872435291674          1.0000   
         H         H         1.0       0.4403228486469928  0.11694524797606776           0.25332969406568134          1.0000   
         H         H         1.0       0.4370825460355401  0.07425105017379563           0.20790466870543975          1.0000   
         H         H         1.0       0.3966226038674831  0.1801549665703075  0.16948666873009838          1.0000   
         H         H         1.0       0.34040663868949095           0.16741181714950426          0.22423163665887808          1.0000   
         C         C         1.0       0.3038106186220837  0.8936409783600867  0.6639129644158215 1.0000   
         C         C         1.0       0.36449397284528756           0.9017211340318061 0.693369427877097  1.0000   
         H         H         1.0       0.2716741401231679  0.9296245935710085  0.6717865191196569 1.0000   
         H         H         1.0       0.2816686948948427  0.8547255131382909  0.6922429174974181 1.0000   
         H         H         1.0       0.3649134745630569  0.887345068550304   0.738187893255923  1.0000   
         H         H         1.0       0.37423846858802773           0.9506912459558465 0.6834535016518997 1.0000   
         C         C         1.0       0.9005964236203406  0.6605741846114555  0.498517316977744  1.0000   
         C         C         1.0       0.8332318038895767  0.6710267299878636  0.5136962295957715 1.0000   
         H         H         1.0       0.9039510410248653  0.6426047798635321  0.4586251483639259 1.0000   
         H         H         1.0       0.920491108551202   0.6223800007290794  0.5331942592370305 1.0000   
         H         H         1.0       0.8095687788280516  0.6294922034666586  0.5191353057010343 1.0000   
         H         H         1.0       0.8125571904379609  0.7014029689357014  0.47753144328806835          1.0000   
         C         C         1.0       0.34365419618996823           0.1796541658915169 0.9714788310104451 1.0000   
         C         C         1.0       0.38685888160279436           0.16203735312297882          0.9266911594146697 1.0000   
         H         H         1.0       0.36617331805898157           0.19597140320301012          0.0036564628870585647        1.0000   
         H         H         1.0       0.3103758289776021  0.1424068374845013  0.9930516995604243 1.0000   
         H         H         1.0       0.3550645074601337  0.1456883888197074  0.8969762028646296 1.0000   
         H         H         1.0       0.42078654973588814           0.12361610089129658          0.9457475144921806 1.0000   
         C         C         1.0       0.7785842424221084  0.472034121319369   0.6848822933247103 1.0000   
         C         C         1.0       0.7956039863040669  0.4449072587635693  0.6338263602578043 1.0000   
         H         H         1.0       0.7294062211967621  0.4643295228786114  0.6871117004245817 1.0000   
         H         H         1.0       0.7819302054085233  0.5234054982071227  0.6726048182879358 1.0000   
         H         H         1.0       0.8456358900644948  0.4537070334781405  0.6258838223859357 1.0000   
         H         H         1.0       0.7753021349355991  0.4716129145269377  0.5946971120433593 1.0000   
         C         C         1.0       0.9942518007070282  0.07549920599350002           0.9284309706970814 1.0000   
         C         C         1.0       0.9308564863006539  0.09242974801128256           0.9433810535816394 1.0000   
         H         H         1.0       0.011354842717975044          0.11137037619182522          0.8885567800291059 1.0000   
         H         H         1.0       0.9866231682268927  0.035192387586204577         0.9125323705569827 1.0000   
         H         H         1.0       0.9166548931082269  0.07108392931316576           0.9900691519694177 1.0000   
         H         H         1.0       0.8955949277514805  0.07377618323718749           0.9165747135058878 1.0000   
         C         C         1.0       0.2640104584737657  0.6405473247988861  0.8891634386909995 1.0000   
         C         C         1.0       0.21386686760553197           0.62829440584264   0.8485903818134115 1.0000   
         H         H         1.0       0.30908062537924874           0.6277576344585859 0.8796259520334583 1.0000   
         H         H         1.0       0.25223357729111706           0.6152306079894538 0.9348413095488274 1.0000   
         H         H         1.0       0.21769117185283887           0.6622435723821454 0.8035144952741844 1.0000   
         H         H         1.0       0.16788265003237623           0.6368136522212897 0.866748374908442  1.0000   
         C         C         1.0       0.8522083758211574  0.4806155143168687  0.07179872556726608          1.0000   
         C         C         1.0       0.8860398750086604  0.5284332675147647  0.09634872042815479          1.0000   
         H         H         1.0       0.8117604640756303  0.5009530004785329  0.05053392622744046          1.0000   
         H         H         1.0       0.8301422015631457  0.44487229108271936           0.10755419585948944          1.0000   
         H         H         1.0       0.91569283153996    0.5586159138327966  0.0623826417050688 1.0000   
         H         H         1.0       0.853221643229385   0.5626161050550128  0.106133016151988  1.0000   
         C         C         1.0       0.3403219467082531  0.34090853528549264           0.5834028371297363 1.0000   
         C         C         1.0       0.2945234207033865  0.2951157178698188  0.6235755116308634 1.0000   
         H         H         1.0       0.3849723453170684  0.3204669649363802  0.5910410151958484 1.0000   
         H         H         1.0       0.343818421777192   0.38144577925473694           0.5980279754464373 1.0000   
         H         H         1.0       0.3174467426572153  0.24984055671923927           0.6380750426974071 1.0000   
         H         H         1.0       0.2594857726216043  0.2853352389176497  0.5958975527341005 1.0000   
         C         C         1.0       0.28232569594739526           0.3317110785994416 0.13189664015998973          1.0000   
         C         C         1.0       0.3409496061507095  0.31047272463507486           0.10575174686503154          1.0000   
         H         H         1.0       0.24795785509542262           0.29402052705392107          0.13278255114241325          1.0000   
         H         H         1.0       0.26735174339569756           0.37055925279222524          0.09720995090465956          1.0000   
         H         H         1.0       0.33337439015976067           0.30662661954635795          0.062246640944861216         1.0000   
         H         H         1.0       0.349504550685779   0.263411488131106   0.1321484274777405 1.0000   
         C         C         1.0       0.810433134687992   0.39264998053403255           0.4956445960150298 1.0000   
         C         C         1.0       0.8526911645347065  0.44739317323331507           0.48157618259942236          1.0000   
         H         H         1.0       0.7678587417759101  0.4099640837327632  0.5089074837705239 1.0000   
         H         H         1.0       0.8267024331432665  0.35834188550133433           0.5308928336305253 1.0000   
         H         H         1.0       0.8225811158438303  0.484252281777381   0.45225038165951953          1.0000   
         H         H         1.0       0.8635992002605564  0.46198187699482374           0.5219267456595539 1.0000   
         C         C         1.0       0.9337537673572595  0.11741449389054037           0.3184530058867132 1.0000   
         C         C         1.0       0.9950264947987955  0.15032430533375685           0.3212494397451911 1.0000   
         H         H         1.0       0.921675128100891   0.11568231004466888           0.2723593750242665 1.0000   
         H         H         1.0       0.8924900227214749  0.13551320949791565           0.33280189423146217          1.0000   
         H         H         1.0       0.029243014127983136          0.13819912741267149          0.2932448091748647 1.0000   
         H         H         1.0       0.014956801395494157          0.13547607207378576          0.3665398366698224 1.0000   
         C         C         1.0       0.4249373832767398  0.6905238144113693  0.36136673550839926          1.0000   
         C         C         1.0       0.41308701556080707           0.6674113491047139 0.3040424924804388 1.0000   
         H         H         1.0       0.4719928242832605  0.6950748754414777  0.3667315922151109 1.0000   
         H         H         1.0       0.41385012391479337           0.6522093431983463 0.3982539226068756 1.0000   
         H         H         1.0       0.39845211650869317           0.7020360238884875 0.27244216436178537          1.0000   
         H         H         1.0       0.45890758190717684           0.6609410520204483 0.2874448152284463 1.0000

