data_0
_chemical_formula_structural 
                                        C6H4C38H24C6H4C38H24C6H4C38H24C6H4C38H24C6H4C38H24C6H4C38H24C6H4C38H24C6H4C38H24C6H4C38H24C6H4C38H24C6H4C38H24C6H4C38H24C6H4C38H24C6H4C38H24C6H4C38H24C6H4C38H24C2H4C2H4C2H4C2H4C2H4C2H4C2H4C2H4C2H4C2H4C2H4C2H4C2H4C2H4C2H4C2H4C2H4C2H4C2H4C2H4C2H4C2H4C2H4C2H4C2H4C2H4C2H4C2H4C2H4C2H4C2H4C2H4C2H4C2H4C2H4C2H4C2H4C2H4C2H4C2H4C2H4C2H4C2H4C2H4C2H4C2H4C2H4C2H4
_chemical_formula_sum                   'C800 H640'
_cell_length_a                          60.37748325024327
_cell_length_b                          28.416565263158127
_cell_length_c                          32.239739726041115
_cell_angle_alpha                       89.97557489573724
_cell_angle_beta                        90.20880873464391
_cell_angle_gamma                       90.18898892186917
_space_group_name_H-M_alt               'P 1'
_space_group_IT_number                  1
loop_
  _space_group_symop_operation_xyz
         'x, y, z' 
loop_
  _atom_site_type_symbol
  _atom_site_label
  _atom_site_symmetry_multiplicity
  _atom_site_fract_x
  _atom_site_fract_y
  _atom_site_fract_z
  _atom_site_occupancy
         C         C         1.0       0.6210783359838641  0.06196091139424812           0.4643095191270068 1.0000   
         C         C         1.0       0.6026426287268358  0.08801948226192377           0.452288742328666  1.0000   
         C         C         1.0       0.5987297611846519  0.1305181845811882  0.4703354623921851 1.0000   
         C         C         1.0       0.6126171936757728  0.14904216470809928           0.5028781496082699 1.0000   
         C         C         1.0       0.6310706894252557  0.12335940982260717           0.5117866720331639 1.0000   
         C         C         1.0       0.635526192104015   0.08084760533120187           0.4921194771430034 1.0000   
         H         H         1.0       0.5907189829048296  0.07692204792839172           0.42857170746205775          1.0000   
         H         H         1.0       0.586676416301418   0.1542687833310643  0.4591878385652572 1.0000   
         H         H         1.0       0.6436566596467117  0.13688372748150698           0.5331564195396591 1.0000   
         H         H         1.0       0.6505362987874681  0.06215503168114492           0.5022369443997123 1.0000   
         C         C         1.0       0.6108646728736677  0.15980793459926917           0.5983813874604155 1.0000   
         C         C         1.0       0.6135142947825151  0.1974814695225238  0.5744454619912092 1.0000   
         C         C         1.0       0.6199002771965583  0.23876771760754326           0.5947132595315372 1.0000   
         C         C         1.0       0.6260751402457736  0.23896916742001234           0.6353894047134394 1.0000   
         C         C         1.0       0.6262411134111808  0.197272498663572   0.6581257466334841 1.0000   
         C         C         1.0       0.6186070048736816  0.157868431076776   0.6398935065085781 1.0000   
         C         C         1.0       0.6054079977800461  0.1958733707630976  0.527076602632519  1.0000   
         C         C         1.0       0.5793019810902033  0.2042010040005868  0.5323553379511676 1.0000   
         C         C         1.0       0.5713500968861738  0.24921597784558328           0.5325702904027628 1.0000   
         C         C         1.0       0.5490871890240524  0.25828782250653204           0.5290218869754666 1.0000   
         C         C         1.0       0.5339306655404841  0.2229521244461208  0.5301829135169983 1.0000   
         C         C         1.0       0.5411798348679792  0.17711736722102633           0.5366223013634701 1.0000   
         C         C         1.0       0.5639452177683002  0.16745576370793244           0.5344325780051753 1.0000   
         C         C         1.0       0.6433928164687474  0.24119744102045762           0.5026276980743383 1.0000   
         C         C         1.0       0.6544514158429255  0.2658197877296642  0.473262191745484  1.0000   
         C         C         1.0       0.6450730768927952  0.2777826702044258  0.43648118772521216          1.0000   
         C         C         1.0       0.6223613798214528  0.2725021441265537  0.43219322528394355          1.0000   
         C         C         1.0       0.6107179014110105  0.2528093477755457  0.46312637440731724          1.0000   
         C         C         1.0       0.6200583784994484  0.232483814568607   0.49819805599324907          1.0000   
         C         C         1.0       0.6579945095480086  0.3080989188515188  0.40151205076358965          1.0000   
         C         C         1.0       0.6442550088175015  0.4521370875995713  0.44027181415246114          1.0000   
         C         C         1.0       0.6608919407759224  0.4259966373712827  0.4583956652825619 1.0000   
         C         C         1.0       0.6629201501649762  0.37927226955684057           0.44922311924976815          1.0000   
         C         C         1.0       0.6528178174293604  0.36124373635594825           0.41470624184544064          1.0000   
         C         C         1.0       0.6350536429376785  0.38598821872298106           0.39951884405767135          1.0000   
         C         C         1.0       0.6312707262291121  0.4310478846240708  0.4107653811344063 1.0000   
         C         C         1.0       0.6527296385391842  0.29524101880757125           0.3548637725907399 1.0000   
         C         C         1.0       0.6454328440103382  0.2480759025669793  0.3460458181433921 1.0000   
         C         C         1.0       0.6368639818228946  0.2380948934003468  0.30828481800287316          1.0000   
         C         C         1.0       0.6366158658023751  0.27203839566271454           0.2760029548240767 1.0000   
         C         C         1.0       0.6447269072955146  0.31673292368289996           0.28441388855003075          1.0000   
         C         C         1.0       0.65372479909895    0.32675378957666773           0.32282540928624187          1.0000   
         C         C         1.0       0.6986899420948092  0.3359303312407955  0.3916009695328745 1.0000   
         C         C         1.0       0.7194282434949815  0.32748121942912944           0.38197824328825875          1.0000   
         C         C         1.0       0.7280898726068279  0.2834966457728452  0.3806328163961388 1.0000   
         C         C         1.0       0.7142437765978656  0.24636058815897266           0.3910162211571357 1.0000   
         C         C         1.0       0.692251066764858   0.25367142904229767           0.4008876352978259 1.0000   
         C         C         1.0       0.6837399744394452  0.29986010604161006           0.4001445279464524 1.0000   
         H         H         1.0       0.60429776019725    0.13031224729007174           0.5848915010590695 1.0000   
         H         H         1.0       0.6210572616188382  0.2695114008960078  0.5797870635736607 1.0000   
         H         H         1.0       0.6308516206789117  0.2742444407401709  0.6490801673743397 1.0000   
         H         H         1.0       0.6174326632018816  0.12528431144600208           0.6569985934234576 1.0000   
         H         H         1.0       0.5814840537284006  0.2797322604301146  0.5353387755629807 1.0000   
         H         H         1.0       0.5439265744017086  0.29506111375282346           0.5274199244694999 1.0000   
         H         H         1.0       0.5307217359290992  0.14837745065626115           0.5398860992210809 1.0000   
         H         H         1.0       0.5696550383565679  0.13084873323090565           0.5374270908411385 1.0000   
         H         H         1.0       0.6517798486692974  0.22414494001315322           0.5282433777793136 1.0000   
         H         H         1.0       0.6713806999350204  0.2762450817625799  0.47599482434864826          1.0000   
         H         H         1.0       0.6162274904392254  0.28739392992263524           0.4029747403519903 1.0000   
         H         H         1.0       0.5927737860623675  0.24437963802872542           0.458249769364265  1.0000   
         H         H         1.0       0.67019105369765    0.44083207218432724           0.4831807471791048 1.0000   
         H         H         1.0       0.6738117711080206  0.35894079358772757           0.4700215965465857 1.0000   
         H         H         1.0       0.622737139448396   0.36812896163837483           0.381292477947647  1.0000   
         H         H         1.0       0.6189623961952728  0.4487010309283076  0.39467279161660956          1.0000   
         H         H         1.0       0.6434023676018524  0.22123730566876623           0.3689518823727209 1.0000   
         H         H         1.0       0.6330030421790058  0.20177539177143794           0.29947209515453904          1.0000   
         H         H         1.0       0.6452125599332397  0.3456116722060083  0.2634270568108383 1.0000   
         H         H         1.0       0.6590531451638483  0.3625160501790314  0.3277690466554237 1.0000   
         H         H         1.0       0.694095331198133   0.37314225493802994           0.38682372525089564          1.0000   
         H         H         1.0       0.7305208754579724  0.3570407961806826  0.3757446692135142 1.0000   
         H         H         1.0       0.7222313067336221  0.21334015457299438           0.38724180920735307          1.0000   
         H         H         1.0       0.6805142378637877  0.22501491438472407           0.405557265604389  1.0000   
         C         C         1.0       0.6081248635514258  0.022838175869083887         0.018118767441772654         1.0000   
         C         C         1.0       0.5887421391918106  0.0436149021402498  0.008947217621791959         1.0000   
         C         C         1.0       0.5843804744773392  0.08986938531936388           0.01995052454011348          1.0000   
         C         C         1.0       0.5998111616036277  0.11416634263428105           0.041246471914811345         1.0000   
         C         C         1.0       0.6197800817647163  0.09377862297550328           0.04836208191593183          1.0000   
         C         C         1.0       0.6235091773733065  0.04802866283814773           0.03927449376452152          1.0000   
         H         H         1.0       0.5766553554574134  0.028724616878602813         0.9867008348745283 1.0000   
         H         H         1.0       0.5698762788881169  0.10766284132448713           0.008398165530932866         1.0000   
         H         H         1.0       0.6320715349481891  0.1125806947562492  0.06475179349043858          1.0000   
         H         H         1.0       0.6393006449939738  0.031245260131534003         0.046637006405927384         1.0000   
         C         C         1.0       0.6087196719462048  0.1618171542740964  0.1238521128648776 1.0000   
         C         C         1.0       0.6078282790890478  0.19002930950771524           0.09033257909478044          1.0000   
         C         C         1.0       0.6164985920248737  0.23467986177931419           0.09392611877397515          1.0000   
         C         C         1.0       0.625740580541916   0.2493658962713875  0.13201952683763493          1.0000   
         C         C         1.0       0.6267623189241573  0.21876921674414196           0.16459529380911297          1.0000   
         C         C         1.0       0.6175869617550064  0.17468428385305762           0.16058942149250066          1.0000   
         C         C         1.0       0.5966883331224272  0.16868135422479194           0.04704646172203575          1.0000   
         C         C         1.0       0.5722979402835506  0.1912888715355193  0.05309867061848062          1.0000   
         C         C         1.0       0.5662850506217777  0.23662434643867458           0.040495040427258586         1.0000   
         C         C         1.0       0.5454254673870573  0.25245971488653096           0.0465923757717118 1.0000   
         C         C         1.0       0.5289495634196043  0.2259855348093968  0.06436826379513133          1.0000   
         C         C         1.0       0.5351861114376145  0.1804702803252907  0.07670476175195234          1.0000   
         C         C         1.0       0.5568402653137133  0.16424188250948224           0.07236654457658076          1.0000   
         C         C         1.0       0.633626518740298   0.19583872971370386           0.008402791464960924         1.0000   
         C         C         1.0       0.6442731880800543  0.21943937181483697           0.9772716016474766 1.0000   
         C         C         1.0       0.6341903006506779  0.2236987422786513  0.9390259931296309 1.0000   
         C         C         1.0       0.611807346196847   0.21481674712308835           0.9347590085518579 1.0000   
         C         C         1.0       0.6010129671564661  0.19455494531794465           0.9690394983350921 1.0000   
         C         C         1.0       0.6112447925077809  0.18716769931988136           0.0075280727763893385        1.0000   
         C         C         1.0       0.6452738714835594  0.25076396053845285           0.8999828097289686 1.0000   
         C         C         1.0       0.6324533156798385  0.3957415361793501  0.9415267700289489 1.0000   
         C         C         1.0       0.6526815222094591  0.37515222731667625           0.9505754791484118 1.0000   
         C         C         1.0       0.6558638021659836  0.3288710608419587  0.9388419733850304 1.0000   
         C         C         1.0       0.6403189179419899  0.3033554242822529  0.9172298873776998 1.0000   
         C         C         1.0       0.6204803589529533  0.3243320969288122  0.9089998903356468 1.0000   
         C         C         1.0       0.6169829075044078  0.36960612659863507           0.9205782321592954 1.0000   
         C         C         1.0       0.6362628462737349  0.24392240386840583           0.8549809157326541 1.0000   
         C         C         1.0       0.63019971681992    0.19879796737588165           0.8421610700281976 1.0000   
         C         C         1.0       0.6245137591682357  0.1888431360123049  0.8032054557921116 1.0000   
         C         C         1.0       0.6241197732543284  0.2237871385688065  0.77374610437799   1.0000   
         C         C         1.0       0.6307944148230298  0.2696996680481369  0.7853410862472988 1.0000   
         C         C         1.0       0.636362070075346   0.2779123403914002  0.8249509869379416 1.0000   
         C         C         1.0       0.6875272130903227  0.27042359313635506           0.8832025963190507 1.0000   
         C         C         1.0       0.7089995783583444  0.2594714995417124  0.8771404040456076 1.0000   
         C         C         1.0       0.7155822816937502  0.2118945402964996  0.8784328465600465 1.0000   
         C         C         1.0       0.7002179045388616  0.17811614678365364           0.8929169803175891 1.0000   
         C         C         1.0       0.6789778039743251  0.19202107744635416           0.9008394038112602 1.0000   
         C         C         1.0       0.6717616443077851  0.23798328682366807           0.8960475241527132 1.0000   
         H         H         1.0       0.600846651813498   0.1273234390089419  0.12396964732538712          1.0000   
         H         H         1.0       0.6173183252024382  0.25386517437774236           0.06523368736865486          1.0000   
         H         H         1.0       0.6337732846917649  0.2845452895907599  0.13399961558187085          1.0000   
         H         H         1.0       0.6168128317661188  0.1490599431929478  0.1846567455429631 1.0000   
         H         H         1.0       0.576966365696118   0.2588115366330211  0.024849690188168738         1.0000   
         H         H         1.0       0.5408525835944968  0.2887081810842971  0.04017925084768148          1.0000   
         H         H         1.0       0.5220091276369483  0.1555645751584463  0.08778643846746055          1.0000   
         H         H         1.0       0.5627852156769141  0.13189970697885894           0.08658984606709176          1.0000   
         H         H         1.0       0.6428550219084336  0.18868174968554677           0.03620395172174782          1.0000   
         H         H         1.0       0.661253342867352   0.22686535608949898           0.9806715357978154 1.0000   
         H         H         1.0       0.6028899064919687  0.2271935825139374  0.9068521255883685 1.0000   
         H         H         1.0       0.583778847484206   0.19004164670547805           0.9646203775347062 1.0000   
         H         H         1.0       0.6673439730542577  0.3909818018118092  0.9673909725035351 1.0000   
         H         H         1.0       0.6713414144363263  0.31199616129721713           0.9502449824602446 1.0000   
         H         H         1.0       0.6057477493847403  0.3077798020398425  0.8956417257240816 1.0000   
         H         H         1.0       0.6019577324335118  0.3830461330556458  0.9062414972612987 1.0000   
         H         H         1.0       0.6304451581654451  0.17020124365762995           0.8651804510758486 1.0000   
         H         H         1.0       0.6214717635709751  0.15405440572199083           0.7908715950956383 1.0000   
         H         H         1.0       0.6297830941341143  0.3034669766582797  0.7648618014749957 1.0000   
         H         H         1.0       0.6429025412713181  0.3120760806885538  0.8331965236701154 1.0000   
         H         H         1.0       0.6821053954002407  0.30595755180472795           0.876756116786496  1.0000   
         H         H         1.0       0.7216503690504553  0.28449313069794024           0.8701320168972079 1.0000   
         H         H         1.0       0.7044857756223034  0.14198955937314436           0.8961897052283724 1.0000   
         H         H         1.0       0.6689180059729618  0.16479024123289365           0.9104024938072731 1.0000   
         C         C         1.0       0.8889066206305124  0.0582598316188315  0.22060731322279334          1.0000   
         C         C         1.0       0.906943187147297   0.08327286619139886           0.22871686167192293          1.0000   
         C         C         1.0       0.9105271366334187  0.12468006417885223           0.20964811914451778          1.0000   
         C         C         1.0       0.8951757380843461  0.1439705846495734  0.1824651570185916 1.0000   
         C         C         1.0       0.8757112539143969  0.1180316778666033  0.1753556514031839 1.0000   
         C         C         1.0       0.8724466283738851  0.0752246741910967  0.19400023584143072          1.0000   
         H         H         1.0       0.9194984713637812  0.07109537411942742           0.25162983012690954          1.0000   
         H         H         1.0       0.9260492741254848  0.14245515254101276           0.21651640598360966          1.0000   
         H         H         1.0       0.8623654999503264  0.13481081546862397           0.15937588291710875          1.0000   
         H         H         1.0       0.8579466625879534  0.05724363599388991           0.18457442873962895          1.0000   
         C         C         1.0       0.88480447624116    0.17403137882136593           0.08850469555691362          1.0000   
         C         C         1.0       0.8876967099742233  0.20829892723619092           0.11954383115409815          1.0000   
         C         C         1.0       0.8805990493385548  0.25352419978982427           0.10950628178741391          1.0000   
         C         C         1.0       0.8702372399347778  0.26274872378430913           0.07260141402874495          1.0000   
         C         C         1.0       0.8671842296072507  0.2276857099078105  0.0434371415409325 1.0000   
         C         C         1.0       0.8729905895734213  0.18229252286613046           0.05248998898414363          1.0000   
         C         C         1.0       0.8982440236783766  0.1949035297096293  0.16267424749241782          1.0000   
         C         C         1.0       0.9226134875655265  0.20633681160231937           0.15035992985316826          1.0000   
         C         C         1.0       0.9300757932342152  0.2533841900200944  0.1527519495967041 1.0000   
         C         C         1.0       0.9521780944537602  0.2649760602961818  0.14397009492668153          1.0000   
         C         C         1.0       0.967452040716631   0.2336571376243415  0.1321696038320101 1.0000   
         C         C         1.0       0.9608946740185351  0.18787818652625699           0.13095379049988876          1.0000   
         C         C         1.0       0.9391777182394375  0.17321338002772482           0.1385790497021561 1.0000   
         C         C         1.0       0.8642333727178405  0.23297091792137992           0.19759035216327825          1.0000   
         C         C         1.0       0.8545289324874825  0.25842240240973896           0.22771714871074447          1.0000   
         C         C         1.0       0.8671828752207643  0.2773872107044208  0.2599490063894006 1.0000   
         C         C         1.0       0.8895608619532471  0.2689946486029626  0.2612136539500845 1.0000   
         C         C         1.0       0.9000913168715057  0.24296510165668916           0.23092076922568439          1.0000   
         C         C         1.0       0.887149102058695   0.22505088109930985           0.198491182066725  1.0000   
         C         C         1.0       0.8571109558640676  0.30564920471075013           0.29811036987878053          1.0000   
         C         C         1.0       0.8698010016755462  0.4434906508401678  0.2462372663747908 1.0000   
         C         C         1.0       0.8513480776299062  0.4173574005972899  0.2353903010872399 1.0000   
         C         C         1.0       0.8475728132678253  0.37439339664783033           0.2530969563887054 1.0000   
         C         C         1.0       0.8623419524290101  0.3569054389647861  0.28216842140093357          1.0000   
         C         C         1.0       0.8804961428277208  0.3829763893090589  0.2925724604628601 1.0000   
         C         C         1.0       0.8833502525662278  0.42705020521370934           0.277650662046262  1.0000   
         C         C         1.0       0.8669355070179743  0.29407990555218366           0.3425170228796497 1.0000   
         C         C         1.0       0.8740530142876985  0.24962971018728222           0.3555546762173513 1.0000   
         C         C         1.0       0.8789090905930411  0.24093660633953168           0.39643274936887174          1.0000   
         C         C         1.0       0.8772112380418283  0.2740455953234225  0.4257412344123443 1.0000   
         C         C         1.0       0.8696551380225909  0.3181735259343299  0.4144016500325092 1.0000   
         C         C         1.0       0.8643331613102966  0.3262869093757248  0.37402312889584927          1.0000   
         C         C         1.0       0.8156905383508413  0.3307400273854248  0.31627074945389033          1.0000   
         C         C         1.0       0.794255118684773   0.3262070110045996  0.3222644933565675 1.0000   
         C         C         1.0       0.7855880455178986  0.2807986102886449  0.3208434324330819 1.0000   
         C         C         1.0       0.7987687789362451  0.2423663617821778  0.3121264020945993 1.0000   
         C         C         1.0       0.8217102478335783  0.2511920211106571  0.30442357509333634          1.0000   
         C         C         1.0       0.8308770635178389  0.2959666246522628  0.30648585981713894          1.0000   
         H         H         1.0       0.8927138684464402  0.1398047590119983  0.09238385293122392          1.0000   
         H         H         1.0       0.8831505696800914  0.28323738795482734           0.1307999760706982 1.0000   
         H         H         1.0       0.8649902559811112  0.29989688378173207           0.06627620363647775          1.0000   
         H         H         1.0       0.8707483604202624  0.15480719418671632           0.030453518923424603         1.0000   
         H         H         1.0       0.9199030260438357  0.2839621210445424  0.16097378106837737          1.0000   
         H         H         1.0       0.9575846597875024  0.30077099620181885           0.15053247178706175          1.0000   
         H         H         1.0       0.9715126166605381  0.1576250371048623  0.12372270611475727          1.0000   
         H         H         1.0       0.9340641250772588  0.1361290139105774  0.13723938518087317          1.0000   
         H         H         1.0       0.8539483042414795  0.21585266879150922           0.17393621545453145          1.0000   
         H         H         1.0       0.837007707550951   0.26639617494795165           0.2276050704299366 1.0000   
         H         H         1.0       0.9001137802507967  0.28234640411974504           0.2875630728006986 1.0000   
         H         H         1.0       0.9163844263495912  0.23181876195717546           0.23304244246156527          1.0000   
         H         H         1.0       0.8401219775396129  0.43001838351722416           0.21143013020587145          1.0000   
         H         H         1.0       0.8334579334761117  0.3543644954137148  0.24108043163181503          1.0000   
         H         H         1.0       0.8920343377485696  0.36829664826957786           0.31630920554091313          1.0000   
         H         H         1.0       0.8990068505492587  0.4447453355613495  0.288828332787092  1.0000   
         H         H         1.0       0.878087081295601   0.22027945972066695           0.3361776065592719 1.0000   
         H         H         1.0       0.8862453511038355  0.2075421272519275  0.4054765153198739 1.0000   
         H         H         1.0       0.8679295262692887  0.34347238509705774           0.43983577863021023          1.0000   
         H         H         1.0       0.8569644339416094  0.35969071249177687           0.369490986034572  1.0000   
         H         H         1.0       0.8206771697046295  0.36711261297652675           0.31695331021330414          1.0000   
         H         H         1.0       0.784418992149866   0.35605707391161795           0.33114052881079326          1.0000   
         H         H         1.0       0.7932353769305724  0.20530658490486994           0.31881669309682614          1.0000   
         H         H         1.0       0.8332084506298374  0.2199806127520731  0.30524384367926577          1.0000   
         C         C         1.0       0.8716260956041327  0.04313967266822076           0.6973534217548472 1.0000   
         C         C         1.0       0.8887681169907008  0.06648630735861526           0.7176285117294072 1.0000   
         C         C         1.0       0.8953813313249476  0.11125309634121137           0.7048838903594926 1.0000   
         C         C         1.0       0.8819706246233292  0.13700250999183936           0.6788488632060011 1.0000   
         C         C         1.0       0.8625752620766933  0.11633585435684253           0.6668849871716965 1.0000   
         C         C         1.0       0.8586519765410402  0.07053038046619174           0.6725440158201521 1.0000   
         H         H         1.0       0.8996607535762262  0.04615891231329761           0.7348142993388271 1.0000   
         H         H         1.0       0.9107940692267735  0.12798672419953436           0.7159384379774785 1.0000   
         H         H         1.0       0.8514149157719721  0.13558247076179783           0.6462155454125634 1.0000   
         H         H         1.0       0.843952264895819   0.05570462464249019           0.6552764625309534 1.0000   
         C         C         1.0       0.882110201128529   0.17689633030458063           0.584343547438456  1.0000   
         C         C         1.0       0.8802613871052689  0.20551421272463835           0.6186322077752314 1.0000   
         C         C         1.0       0.8739860754445116  0.25181067581527905           0.6127794055396822 1.0000   
         C         C         1.0       0.8688848809009609  0.2652461704588608  0.5734586552829272 1.0000   
         C         C         1.0       0.8699072437834738  0.23508684239786004           0.539661132378931  1.0000   
         C         C         1.0       0.8765706227666562  0.1903645853479415  0.5456668949364881 1.0000   
         C         C         1.0       0.8880580512642124  0.18744399108371923           0.6638878570645035 1.0000   
         C         C         1.0       0.9142560075994867  0.195741582731166   0.6582272459124769 1.0000   
         C         C         1.0       0.9241840870312904  0.2386559543519195  0.6696677927925818 1.0000   
         C         C         1.0       0.9458027248535005  0.24599656976629589           0.6706825663528988 1.0000   
         C         C         1.0       0.9590331143513922  0.20964108457577427           0.6591549221110955 1.0000   
         C         C         1.0       0.9508717033907371  0.1674036664040618  0.6442476609903909 1.0000   
         C         C         1.0       0.9283322631518339  0.16243350478289312           0.6420253380867086 1.0000   
         C         C         1.0       0.8536753497896327  0.22440462020122046           0.6985208002991998 1.0000   
         C         C         1.0       0.8419301404948445  0.24405515997424493           0.73116096409112   1.0000   
         C         C         1.0       0.8529221785290845  0.2542038181576906  0.7689288651082763 1.0000   
         C         C         1.0       0.875470538230717   0.2468352690052899  0.7705233604763012 1.0000   
         C         C         1.0       0.886180795824402   0.22787322070269722           0.7372173859321725 1.0000   
         C         C         1.0       0.8760796784116123  0.2160374225098235  0.7016562960087392 1.0000   
         C         C         1.0       0.8409184447299305  0.2809633551157675  0.8052620048403216 1.0000   
         C         C         1.0       0.8478495944068615  0.4218946829191613  0.7526503772236023 1.0000   
         C         C         1.0       0.8281082940773636  0.39831465847989017           0.7486907870292665 1.0000   
         C         C         1.0       0.8263520748998247  0.3528299248980103  0.7634919308382573 1.0000   
         C         C         1.0       0.8437431663969341  0.333896040771407   0.7870689026525357 1.0000   
         C         C         1.0       0.8633129766178061  0.356706802762114   0.7879019851514246 1.0000   
         C         C         1.0       0.8664868776697144  0.40007887441567075           0.7700313394517637 1.0000   
         C         C         1.0       0.852326088339672   0.2737872081675774  0.8502775150402923 1.0000   
         C         C         1.0       0.8606833213795446  0.23196473838341797           0.8624749679586431 1.0000   
         C         C         1.0       0.8699355897628828  0.22530086809487587           0.9007838977020409 1.0000   
         C         C         1.0       0.8706666574385136  0.26353207281741964           0.9277377447978239 1.0000   
         C         C         1.0       0.8607642953060526  0.3065914199662459  0.917483869204904  1.0000   
         C         C         1.0       0.8525411942988866  0.3106889295109548  0.8777060837129059 1.0000   
         C         C         1.0       0.7991481833027625  0.2906154877396848  0.8298054914211196 1.0000   
         C         C         1.0       0.77764209078092    0.2759198234930199  0.8350325717497573 1.0000   
         C         C         1.0       0.7724205008511124  0.23028719037733908           0.8236619396072268 1.0000   
         C         C         1.0       0.7880393935427593  0.19933862340247727           0.8092194967807257 1.0000   
         C         C         1.0       0.8097397420759738  0.2150324023870152  0.804439276346975  1.0000   
         C         C         1.0       0.8154986428110648  0.2617406075239551  0.8112448388908787 1.0000   
         H         H         1.0       0.8846098584776437  0.14136346175979111           0.591984263221107  1.0000   
         H         H         1.0       0.8737269456216953  0.276170422697922   0.637390194285224  1.0000   
         H         H         1.0       0.8636106832797221  0.3016633603240675  0.568650568092623  1.0000   
         H         H         1.0       0.8785084192828017  0.16837214083373833           0.5190766089331089 1.0000   
         H         H         1.0       0.9148350300467673  0.2677223846670009  0.6785757703574928 1.0000   
         H         H         1.0       0.9529313195455063  0.27921054847711513           0.6815339936617082 1.0000   
         H         H         1.0       0.9610758694784327  0.13713277096203777           0.6362237888758157 1.0000   
         H         H         1.0       0.9216438001969762  0.12862554394722397           0.6303543456515669 1.0000   
         H         H         1.0       0.8448509177127467  0.21621296910747828           0.673037247001661  1.0000   
         H         H         1.0       0.8249893579890699  0.2556206943856889  0.7267901227339837 1.0000   
         H         H         1.0       0.884080370643624   0.26114486862014596           0.7948668635505874 1.0000   
         H         H         1.0       0.9030692886365611  0.22164318584489276           0.7436224738204325 1.0000   
         H         H         1.0       0.8148436670911203  0.41444442306407203           0.731978597985058  1.0000   
         H         H         1.0       0.8112988224437552  0.33454316502245507           0.7579079054460975 1.0000   
         H         H         1.0       0.8776638636255146  0.33952446205269865           0.8023092323833949 1.0000   
         H         H         1.0       0.8824668085921271  0.41568262727103855           0.7688692783831069 1.0000   
         H         H         1.0       0.8594683656722967  0.20308630707947897           0.8412741799447502 1.0000   
         H         H         1.0       0.8751494564974802  0.1904862832601454  0.9111029146195959 1.0000   
         H         H         1.0       0.8586837429246144  0.33617577170525087           0.9381674589427343 1.0000   
         H         H         1.0       0.8450295431780249  0.34341544387938755           0.8688602218649838 1.0000   
         H         H         1.0       0.8040289906717674  0.32512820680757165           0.8392443665489979 1.0000   
         H         H         1.0       0.7644948279209595  0.2998140936037095  0.8485538203973018 1.0000   
         H         H         1.0       0.7846597584431436  0.16144336383219215           0.8016501213578326 1.0000   
         H         H         1.0       0.8209613765236865  0.18770297891685211           0.7934617282695079 1.0000   
         C         C         1.0       0.11009655064745083           0.431006434997794  0.21746785675655098          1.0000   
         C         C         1.0       0.09206658298997825           0.4046510810470525 0.22921115565941694          1.0000   
         C         C         1.0       0.08908487435902626           0.35914241619354115          0.217812831413956  1.0000   
         C         C         1.0       0.10303681659556715           0.33829120058053763          0.18942524783553819          1.0000   
         C         C         1.0       0.12161073146464117           0.364032166712445  0.17766862481917717          1.0000   
         C         C         1.0       0.12484855190201473           0.408937431634614  0.1928003304163788 1.0000   
         H         H         1.0       0.08189586105652666           0.42419388638116434          0.25284810475845504          1.0000   
         H         H         1.0       0.07471731190209677           0.34050731931296885          0.2284289557333495 1.0000   
         H         H         1.0       0.13360977373376967           0.35085537744857   0.1559280448635028 1.0000   
         H         H         1.0       0.14068843080495275           0.4255610538171945 0.1811881323390635 1.0000   
         C         C         1.0       0.1101963867216111  0.3064425951128228  0.09521487761950696          1.0000   
         C         C         1.0       0.1079051215160348  0.27456679599151873           0.12784992426232383          1.0000   
         C         C         1.0       0.11000179496457362           0.2247900261977877 0.11871672117207502          1.0000   
         C         C         1.0       0.11819471087638687           0.21224046972343377          0.08043042325109757          1.0000   
         C         C         1.0       0.12235033822610336           0.2449559405870975 0.05096037267247026          1.0000   
         C         C         1.0       0.11835961473312688           0.2912979285676677 0.05825203785534382          1.0000   
         C         C         1.0       0.09918879366791128           0.2859456595926876 0.17311900375337919          1.0000   
         C         C         1.0       0.07435884150647244           0.27302938001563404          0.16919179384640556          1.0000   
         C         C         1.0       0.06593429594369983           0.2294984574680126 0.1825489620054435 1.0000   
         C         C         1.0       0.0441291998793201  0.21968787739609322           0.1839943261954928 1.0000   
         C         C         1.0       0.02886523067593237           0.25171017905801113          0.16871703730136173          1.0000   
         C         C         1.0       0.03595770915877534           0.2938784009432953 0.1532016799084667 1.0000   
         C         C         1.0       0.05850419299445875           0.3043022064030619 0.15441537680489115          1.0000   
         C         C         1.0       0.1361948043983015  0.25406489006851185           0.20222594224989973          1.0000   
         C         C         1.0       0.14853051814364285           0.2308080018831183 0.23277554451946322          1.0000   
         C         C         1.0       0.1394660361725246  0.2199315188685977  0.27046328220813065          1.0000   
         C         C         1.0       0.11796496601337443           0.22934689294620123          0.2753086246826521 1.0000   
         C         C         1.0       0.10620260825811732           0.25658216642147913          0.24728276139070848          1.0000   
         C         C         1.0       0.11368127120462143           0.2650909356752277 0.20873843803189465          1.0000   
         C         C         1.0       0.15159602604189917           0.18760461766865202          0.3024245852961008 1.0000   
         C         C         1.0       0.14473087701345697           0.0469856982493915 0.24991465737292876          1.0000   
         C         C         1.0       0.16319378158675085           0.0752353922950796 0.2405578326283729 1.0000   
         C         C         1.0       0.1642416516760684  0.12099902153184795           0.2546141300370184 1.0000   
         C         C         1.0       0.14811579764364508           0.13862266906391743          0.28132733879160504          1.0000   
         C         C         1.0       0.12910605805801192           0.11333837075636345          0.2856866374494098 1.0000   
         C         C         1.0       0.1276582526223131  0.06656737936016056           0.2727266720334665 1.0000   
         C         C         1.0       0.14417410075647913           0.1893387323287581 0.35121422705480654          1.0000   
         C         C         1.0       0.1376767856334652  0.23085645287169673           0.36876351629515053          1.0000   
         C         C         1.0       0.12737797193570635           0.23152726815573504          0.4067700351885659 1.0000   
         C         C         1.0       0.12495722387022445           0.1904908229544421 0.42928261523845274          1.0000   
         C         C         1.0       0.1319903429551139  0.1483287728905143  0.41350942397451756          1.0000   
         C         C         1.0       0.14153782240589619           0.1476397938168337 0.37523356427052346          1.0000   
         C         C         1.0       0.19287602179455146           0.17231494202376996          0.3261196247395336 1.0000   
         C         C         1.0       0.21445440752801798           0.18728749669508438          0.3282178547423914 1.0000   
         C         C         1.0       0.22017337940325987           0.23371731653505107          0.32367203485576435          1.0000   
         C         C         1.0       0.20380366523652824           0.26554321800082   0.3180353137621427 1.0000   
         C         C         1.0       0.1829621556217355  0.25058079783344667           0.3070197855063542 1.0000   
         C         C         1.0       0.17653884358699268           0.20299480281993543          0.31097849442378694          1.0000   
         H         H         1.0       0.10286748643265657           0.3405280916521861 0.0963998099878626 1.0000   
         H         H         1.0       0.10576105899423754           0.1993596555197209 0.1426188424035094 1.0000   
         H         H         1.0       0.1177007644347131  0.17447388074497666           0.0736083019015297 1.0000   
         H         H         1.0       0.1175992036524091  0.3177567100493718  0.0339475560214399 1.0000   
         H         H         1.0       0.07718456439615914           0.20277919673641417          0.19352480751416695          1.0000   
         H         H         1.0       0.038203734928509134          0.18383051854958   0.19177671117693035          1.0000   
         H         H         1.0       0.025467103705859112          0.3190384609737062 0.1360874230686449 1.0000   
         H         H         1.0       0.06475035309870457           0.3368927057297647 0.14013095342102727          1.0000   
         H         H         1.0       0.1440180717271692  0.2565082121305906  0.172792647781924  1.0000   
         H         H         1.0       0.16444395725221828           0.22167295713725854          0.2271349593065917 1.0000   
         H         H         1.0       0.10987076363646774           0.21889263342828053          0.303320105706301  1.0000   
         H         H         1.0       0.08880607622015277           0.26157602511357947          0.25623761401434303          1.0000   
         H         H         1.0       0.17748834172690806           0.06135376820156616          0.22497365866347793          1.0000   
         H         H         1.0       0.17891322172670077           0.14193081620279394          0.25192813361102107          1.0000   
         H         H         1.0       0.11511210013811984           0.13177252641225082          0.29838463852726055          1.0000   
         H         H         1.0       0.11366397706198252           0.042834427860190136         0.2761962652239363 1.0000   
         H         H         1.0       0.13958794619654272           0.2637574736029582 0.35403735833313116          1.0000   
         H         H         1.0       0.12172969949464928           0.26438219366689936          0.42210426300916304          1.0000   
         H         H         1.0       0.1321713509132211  0.11831161961173545           0.4319157863115471 1.0000   
         H         H         1.0       0.14993154937482958           0.11383375006627348          0.3685940356292661 1.0000   
         H         H         1.0       0.19052060081509914           0.13516061227899126          0.33129935807617594          1.0000   
         H         H         1.0       0.2258122558833422  0.158228233212172   0.33351955129473104          1.0000   
         H         H         1.0       0.20841260307013018           0.3033769691834728 0.31498849899058   1.0000   
         H         H         1.0       0.17047404184849005           0.27834095873721054          0.30205678541423553          1.0000   
         C         C         1.0       0.10738230253241268           0.40275302837995547          0.7204919950281727 1.0000   
         C         C         1.0       0.08732483507649016           0.3829459520826412 0.7288307292026907 1.0000   
         C         C         1.0       0.08217249581398496           0.33897022479446137          0.7140392189951764 1.0000   
         C         C         1.0       0.09730423644752328           0.31612871687926575          0.686393872526686  1.0000   
         C         C         1.0       0.11652777634499528           0.3385842162464296 0.676282656909327  1.0000   
         C         C         1.0       0.12236882812833652           0.38260261271545987          0.6932356438359917 1.0000   
         H         H         1.0       0.07559405741453222           0.40041383074799586          0.7468562095699759 1.0000   
         H         H         1.0       0.0668508429133187  0.32200718839625525           0.7196438388270845 1.0000   
         H         H         1.0       0.12852596964924168           0.3211834122798564 0.6552855006303999 1.0000   
         H         H         1.0       0.1395486217720825  0.3953497408445976  0.6900534296905086 1.0000   
         C         C         1.0       0.10481543536910139           0.28379724026076303          0.591872565792407  1.0000   
         C         C         1.0       0.10279668144128834           0.2507801264584135 0.6236093432015295 1.0000   
         C         C         1.0       0.1085769051741515  0.20446202300868674           0.6147935986478807 1.0000   
         C         C         1.0       0.11757073408721726           0.19332237321072068          0.5761865664197219 1.0000   
         C         C         1.0       0.11773884753315604           0.22627060239243282          0.5453500814755055 1.0000   
         C         C         1.0       0.1123144433645078  0.2707072074310508  0.5535815092204234 1.0000   
         C         C         1.0       0.09286677783462242           0.26376487364270285          0.6684038351066629 1.0000   
         C         C         1.0       0.0681593651591785  0.2476366212429211  0.6622017170629954 1.0000   
         C         C         1.0       0.059870903016277316          0.2015271134613503 0.6667200290349579 1.0000   
         C         C         1.0       0.03790407317245068           0.19130289368615458          0.6576763474513524 1.0000   
         C         C         1.0       0.02460818556779045           0.22345235014610876          0.6393942548698748 1.0000   
         C         C         1.0       0.03152596528843507           0.2685820633059015 0.6348947686141858 1.0000   
         C         C         1.0       0.05326086188326776           0.28009499854365166          0.6444526774828907 1.0000   
         C         C         1.0       0.12868014414570023           0.22553604934782662          0.703585372139855  1.0000   
         C         C         1.0       0.13950417621819503           0.20463265706745065          0.7351697368289563 1.0000   
         C         C         1.0       0.12804338803262624           0.19390128774214177          0.7711774164060577 1.0000   
         C         C         1.0       0.10607964536656136           0.2036537689462882 0.773652078096811  1.0000   
         C         C         1.0       0.09596506798310557           0.22708439604134262          0.7421617231073439 1.0000   
         C         C         1.0       0.1063852032720797  0.23681849951968964           0.7046583207752204 1.0000   
         C         C         1.0       0.14092370076627092           0.16596720782801322          0.8091977691250024 1.0000   
         C         C         1.0       0.12864790826153955           0.02456345724024807          0.7606040716289116 1.0000   
         C         C         1.0       0.14914305646424247           0.04609773609291143          0.7548841591528745 1.0000   
         C         C         1.0       0.15275660775524644           0.09103735034909423          0.7678712158894031 1.0000   
         C         C         1.0       0.13737071559354042           0.1132700601727121 0.7921625364762988 1.0000   
         C         C         1.0       0.11719656350425481           0.0906183469006891 0.801153438871253  1.0000   
         C         C         1.0       0.11250343391627048           0.04736696843519137          0.7839713283000531 1.0000   
         C         C         1.0       0.13100844864736108           0.1792875481987716 0.8545309212769737 1.0000   
         C         C         1.0       0.12543162272153172           0.22443535368544448          0.8647708503830724 1.0000   
         C         C         1.0       0.11910860389525478           0.2372145154330656 0.9041284810685418 1.0000   
         C         C         1.0       0.11964937100813937           0.20625344266872542          0.9369445710083107 1.0000   
         C         C         1.0       0.1247619840637831  0.1610002734497452  0.9271057177906437 1.0000   
         C         C         1.0       0.1303480720885052  0.1475195959607682  0.88679863731248   1.0000   
         C         C         1.0       0.17851010915764282           0.14292477508046292          0.8399009347958692 1.0000   
         C         C         1.0       0.1992769484977768  0.15369452930580838           0.852372043953023  1.0000   
         C         C         1.0       0.20982328971897904           0.1955225833136789 0.8399294559098157 1.0000   
         C         C         1.0       0.1970462115634379  0.23063828528455876           0.8230245044081331 1.0000   
         C         C         1.0       0.17548725661817843           0.2195195452359789 0.8100599244468635 1.0000   
         C         C         1.0       0.16625950320149646           0.1751716279235944 0.8185855020591403 1.0000   
         H         H         1.0       0.09788358756223661           0.3198541566499942 0.5957030850290729 1.0000   
         H         H         1.0       0.10817084813626647           0.17790465833539132          0.6393137391580466 1.0000   
         H         H         1.0       0.12473200909711205           0.15854278726112558          0.5671117417051424 1.0000   
         H         H         1.0       0.11339736497097422           0.2976779920703081 0.5293657606470883 1.0000   
         H         H         1.0       0.07092939756005354           0.17162435809570425          0.6710884960213902 1.0000   
         H         H         1.0       0.03344586989400313           0.15474513446984095          0.6601802265535983 1.0000   
         H         H         1.0       0.02078635137906943           0.29349917819883786          0.618443365530997  1.0000   
         H         H         1.0       0.06002173348979268           0.3153897249998408 0.6382114980308151 1.0000   
         H         H         1.0       0.13660680526267197           0.23347992294372716          0.6761201813866748 1.0000   
         H         H         1.0       0.15608095010629108           0.19642259532889822          0.7332820677871202 1.0000   
         H         H         1.0       0.09781244746874818           0.19444176741917296          0.8028391733460968 1.0000   
         H         H         1.0       0.07871786856648018           0.2319141489987802 0.7461436531266049 1.0000   
         H         H         1.0       0.1618026971438147  0.02810528458980446           0.7355041716134606 1.0000   
         H         H         1.0       0.16814903317471308           0.10668198028342764          0.7573093313772048 1.0000   
         H         H         1.0       0.10598149984815687           0.1087601396484922 0.8196335367825306 1.0000   
         H         H         1.0       0.09794616005270697           0.02838490729400891          0.7920457928092    1.0000   
         H         H         1.0       0.1264343714040593  0.2534961131056592  0.8431656421598492 1.0000   
         H         H         1.0       0.11513009976219676           0.2715079615894125 0.9120169072570374 1.0000   
         H         H         1.0       0.12482076102692771           0.1316661381649879 0.9508814456198214 1.0000   
         H         H         1.0       0.1368664579725021  0.1123609208117613  0.8825764393154285 1.0000   
         H         H         1.0       0.17178156949413517           0.11088236896442526          0.8508046972936182 1.0000   
         H         H         1.0       0.20761183751510148           0.12599821847693868          0.8696847804719122 1.0000   
         H         H         1.0       0.2019571213203929  0.26663639473306044           0.8190827404982285 1.0000   
         H         H         1.0       0.1657254791061948  0.25034175436508227           0.7991595391586964 1.0000   
         C         C         1.0       0.40201312809180484           0.4518143509915171 0.5112280370732356 1.0000   
         C         C         1.0       0.4193061622933777  0.42518315701684484           0.49682623383413715          1.0000   
         C         C         1.0       0.41942792699617765           0.3758579753441665 0.5002139745497044 1.0000   
         C         C         1.0       0.40305110149070256           0.35320789043090234          0.5235674016442041 1.0000   
         C         C         1.0       0.38473435985370447           0.3799548599211028 0.5334724380671567 1.0000   
         C         C         1.0       0.3846433176337662  0.42792017929454956           0.5291633616415681 1.0000   
         H         H         1.0       0.43305823594940485           0.4421595834398183 0.4805861693992723 1.0000   
         H         H         1.0       0.4325562242941663  0.35368309397025394           0.4888910047672004 1.0000   
         H         H         1.0       0.3697520274014846  0.3651585113753861  0.5431889427376644 1.0000   
         H         H         1.0       0.37067717067645756           0.4440794766800658 0.5442321460128563 1.0000   
         C         C         1.0       0.39366527555415726           0.3083542790295622 0.6122552245409008 1.0000   
         C         C         1.0       0.3946509611629374  0.27933705696050687           0.5791490789166115 1.0000   
         C         C         1.0       0.3905214798379725  0.23212100317224965           0.585025980259079  1.0000   
         C         C         1.0       0.382969474779205   0.2150261107227658  0.6229323314083285 1.0000   
         C         C         1.0       0.3827647131740755  0.24418193189910264           0.6574105653042961 1.0000   
         C         C         1.0       0.38815069542060365           0.291099757522527  0.6532410411711357 1.0000   
         C         C         1.0       0.40303236030870054           0.2975043672483507 0.5350382357109428 1.0000   
         C         C         1.0       0.4275593140562673  0.2772866222754183  0.5391915333688673 1.0000   
         C         C         1.0       0.43402634565614157           0.23633223869388179          0.5218491017099871 1.0000   
         C         C         1.0       0.45516396075271714           0.22020670651650223          0.527302659451823  1.0000   
         C         C         1.0       0.47094355679587385           0.24528619797672163          0.5496208714582811 1.0000   
         C         C         1.0       0.46409846114205794           0.2881669204142708 0.5657354051161393 1.0000   
         C         C         1.0       0.44271464674224975           0.304175325735349  0.5614551705431187 1.0000   
         C         C         1.0       0.36494142467464313           0.27960565001305915          0.4988531425601556 1.0000   
         C         C         1.0       0.3526658793824972  0.25682379004646244           0.46850063626488436          1.0000   
         C         C         1.0       0.36236931087984015           0.24332030307018188          0.4321216034895998 1.0000   
         C         C         1.0       0.3847310097231373  0.25218252060541707           0.42792919142994934          1.0000   
         C         C         1.0       0.3968401762224124  0.27231684139039336           0.45815234538233407          1.0000   
         C         C         1.0       0.38786929597259956           0.2816581201956237 0.4962823552031254 1.0000   
         C         C         1.0       0.34792480370877    0.21215875869448572           0.3983535394038448 1.0000   
         C         C         1.0       0.36222485435899376           0.07573515929733701          0.45438046338456856          1.0000   
         C         C         1.0       0.3441133765580348  0.1024246501808786  0.4664663007169576 1.0000   
         C         C         1.0       0.339680317145503   0.14211752390619628           0.44595551213283774          1.0000   
         C         C         1.0       0.35370630792524427           0.16076518414647462          0.41677512343367623          1.0000   
         C         C         1.0       0.3730842484159851  0.13695963023764487           0.40844217485525275          1.0000   
         C         C         1.0       0.37712825176618925           0.09432649559845271          0.42635021176748816          1.0000   
         C         C         1.0       0.355983870030786   0.2178844418377958  0.3517364893653779 1.0000   
         C         C         1.0       0.3649303836581174  0.25993339636144897           0.33872556606102133          1.0000   
         C         C         1.0       0.37292155222792195           0.2655827051526447 0.29983235227532157          1.0000   
         C         C         1.0       0.3720506182652912  0.23111408076842233           0.27166599118114637          1.0000   
         C         C         1.0       0.3627258211520084  0.18828026733080525           0.28326943366856405          1.0000   
         C         C         1.0       0.35639837287665305           0.1823284967811342 0.32317735954717197          1.0000   
         C         C         1.0       0.3077692703482266  0.19043034479408483           0.3794360327951966 1.0000   
         C         C         1.0       0.2856947877568784  0.19985982961515603           0.3721038484889285 1.0000   
         C         C         1.0       0.2775548643099158  0.24450227204758238           0.38037102772088544          1.0000   
         C         C         1.0       0.29163495710033865           0.278812569755317  0.39394090269693194          1.0000   
         C         C         1.0       0.313589695310832   0.2691760876959209  0.401130834352037  1.0000   
         C         C         1.0       0.32211198083857384           0.22417188312822386          0.3932900703673226 1.0000   
         H         H         1.0       0.39794972938585876           0.3446514843538083 0.6097203504443058 1.0000   
         H         H         1.0       0.3907666439060901  0.20768888129060292           0.5584888708766034 1.0000   
         H         H         1.0       0.3808031023282055  0.17749003214719614           0.6262625404979504 1.0000   
         H         H         1.0       0.38988156035144717           0.3128915821937115 0.6794892496491783 1.0000   
         H         H         1.0       0.42175340982206594           0.21293868288046505          0.5062029685228607 1.0000   
         H         H         1.0       0.4611115082315151  0.18711062122936561           0.5159355054764072 1.0000   
         H         H         1.0       0.47513583952861066           0.31083490172757466          0.5842042032814673 1.0000   
         H         H         1.0       0.4398757004459478  0.33802338959432954           0.5774359119896095 1.0000   
         H         H         1.0       0.3558413556300643  0.2816494012194308  0.5292002353169948 1.0000   
         H         H         1.0       0.33511601325889817           0.2504632664900443 0.47514837218773603          1.0000   
         H         H         1.0       0.393126986089735   0.24513909764139927           0.40091455321393915          1.0000   
         H         H         1.0       0.4146694311302979  0.2762192427222822  0.451608514370454  1.0000   
         H         H         1.0       0.33044378266763974           0.08661988277635553          0.4850568360497156 1.0000   
         H         H         1.0       0.32372917875949564           0.16095187301510241          0.4519254648107748 1.0000   
         H         H         1.0       0.38598722110897377           0.15312289591424422          0.3923176833971556 1.0000   
         H         H         1.0       0.39136350442334933           0.07670927962043458          0.4156751635392039 1.0000   
         H         H         1.0       0.36461191354150657           0.29240402332397286          0.35814429967717554          1.0000   
         H         H         1.0       0.3782670346187528  0.29922603365391154           0.29128173844893024          1.0000   
         H         H         1.0       0.3604990041707564  0.159759404907161   0.26116044696113333          1.0000   
         H         H         1.0       0.3465713739715921  0.15059417017805543           0.32884745281076583          1.0000   
         H         H         1.0       0.312966712818415   0.1526290152356483  0.3777399242056964 1.0000   
         H         H         1.0       0.2747382819219277  0.1752769556179388  0.35891130266152493          1.0000   
         H         H         1.0       0.2861818304652203  0.31407389242576156           0.39527894440889755          1.0000   
         H         H         1.0       0.32570779217656354           0.29520617507073255          0.41029485022652895          1.0000   
         C         C         1.0       0.37647031825638605           0.4102936268175218 0.9683285999323038 1.0000   
         C         C         1.0       0.3946917503296598  0.3862339617881013  0.9567682305055678 1.0000   
         C         C         1.0       0.4005065905273591  0.34584140404009095           0.9760152284833723 1.0000   
         C         C         1.0       0.38770385182931055           0.3256596309165284 0.005987738356622297         1.0000   
         C         C         1.0       0.3677614815105546  0.3485154862055645  0.016610639582693515         1.0000   
         C         C         1.0       0.3625358708799344  0.3898143618001103  0.9968243578491192 1.0000   
         H         H         1.0       0.4060739051471209  0.39623447338338413           0.9315953341174906 1.0000   
         H         H         1.0       0.4145377508663072  0.32751779325618996           0.9658870499978957 1.0000   
         H         H         1.0       0.3568661476349085  0.33830864153916484           0.040381937021349595         1.0000   
         H         H         1.0       0.3459473918887347  0.4036709534038922  0.0028510861694637235        1.0000   
         C         C         1.0       0.3877963894223024  0.300866152398884   0.10095117565310333          1.0000   
         C         C         1.0       0.3857490307084078  0.26425024551695364           0.07300434922382706          1.0000   
         C         C         1.0       0.3776252680461285  0.22215419901099864           0.0871013389200419 1.0000   
         C         C         1.0       0.36914199606548226           0.2166501707217049 0.12547821173649287          1.0000   
         C         C         1.0       0.3689711713660075  0.2547233177957433  0.15107959345139588          1.0000   
         C         C         1.0       0.3791795699096627  0.29612733090919696           0.1402920369390723 1.0000   
         C         C         1.0       0.3937542446017001  0.2739135188609751  0.02719115529406117          1.0000   
         C         C         1.0       0.4191572357963551  0.258517325233283   0.029195669994836873         1.0000   
         C         C         1.0       0.4248343135031787  0.21199729091505    0.030854030199912442         1.0000   
         C         C         1.0       0.4471843410662634  0.19921852949346405           0.03384822276785459          1.0000   
         C         C         1.0       0.46394230802368736           0.23286829579182422          0.03699162950010303          1.0000   
         C         C         1.0       0.4570123546988026  0.2788758255455723  0.03762267754416184          1.0000   
         C         C         1.0       0.43534607034851763           0.2907959429237603 0.03506631705710615          1.0000   
         C         C         1.0       0.35625824113541077           0.23406214628770583          0.9992311208437012 1.0000   
         C         C         1.0       0.3447075781633082  0.2135675483481767  0.9678605940443048 1.0000   
         C         C         1.0       0.35461459672896295           0.20766995571847754          0.9286768198811615 1.0000   
         C         C         1.0       0.37743193106253753           0.21544215469864747          0.9238938719917148 1.0000   
         C         C         1.0       0.3895726675261653  0.23556748228272062           0.9552129604328101 1.0000   
         C         C         1.0       0.3792663949879038  0.24359080572746725           0.9936348961870635 1.0000   
         C         C         1.0       0.34154072755113224           0.1798029475187953 0.8955145726129051 1.0000   
         C         C         1.0       0.3639222904786251  0.0388894167955204  0.9331247602959833 1.0000   
         C         C         1.0       0.344016920478705   0.05799836185120489           0.947306547101286  1.0000   
         C         C         1.0       0.33762997305800374           0.10218735360433505          0.9334902313775131 1.0000   
         C         C         1.0       0.3493353934130898  0.12797635894380066           0.9060042246688552 1.0000   
         C         C         1.0       0.369256943373261   0.10748687458114038           0.8901930162403694 1.0000   
         C         C         1.0       0.37573527899463105           0.06312405085915355          0.9036271829207415 1.0000   
         C         C         1.0       0.3461885229542355  0.19200477237886657           0.8474231276555814 1.0000   
         C         C         1.0       0.35289053147261296           0.2371883268653351 0.8362551170197522 1.0000   
         C         C         1.0       0.3575543942233528  0.24685318494236605           0.7948959895347933 1.0000   
         C         C         1.0       0.35236745539559167           0.2162926093850619 0.7637052754891032 1.0000   
         C         C         1.0       0.3429780173326964  0.17350337207994818           0.7748378614021144 1.0000   
         C         C         1.0       0.3394555684463562  0.16048304062517285           0.8153259117503827 1.0000   
         C         C         1.0       0.30075886063495044           0.14967896342616896          0.883500270426448  1.0000   
         C         C         1.0       0.2779087313776816  0.15345937829254924           0.8840022702684408 1.0000   
         C         C         1.0       0.268478659687886   0.19501649022846596           0.8967071557253012 1.0000   
         C         C         1.0       0.281596191108663   0.23428324662030972           0.9015384004023533 1.0000   
         C         C         1.0       0.30438424819103277           0.22887349024653422          0.9016159746052143 1.0000   
         C         C         1.0       0.31469906197674563           0.18635882747014187          0.8942544230813173 1.0000   
         H         H         1.0       0.39479917064407366           0.3347188281548557 0.09185804574497371          1.0000   
         H         H         1.0       0.37726283268748595           0.19331508995219363          0.06463036681175278          1.0000   
         H         H         1.0       0.36358894133832703           0.18253068253524865          0.1347296529099459 1.0000   
         H         H         1.0       0.37822012396496696           0.32763676620101273          0.15939103101221372          1.0000   
         H         H         1.0       0.4127609139338845  0.18472039447231073           0.031010160577881366         1.0000   
         H         H         1.0       0.4517508297150156  0.16270267971031763           0.03453473922317478          1.0000   
         H         H         1.0       0.4695610866600552  0.3063006541228157  0.03529237634289501          1.0000   
         H         H         1.0       0.43253979533309683           0.32663758502476453          0.03458979234343339          1.0000   
         H         H         1.0       0.3490812944976296  0.24372803950198396           0.02892973801139984          1.0000   
         H         H         1.0       0.32773255552322483           0.20028483744386533          0.9741883192035891 1.0000   
         H         H         1.0       0.38559924895222486           0.21063584684123063          0.8939677121647619 1.0000   
         H         H         1.0       0.4065509825468336  0.24243847167476826           0.9493313229196787 1.0000   
         H         H         1.0       0.3334937358310962  0.03966464597752171           0.9673641222895655 1.0000   
         H         H         1.0       0.3244274791715691  0.11885777115932954           0.9507995690452024 1.0000   
         H         H         1.0       0.380590914732829   0.12285876519034154           0.867304418225574  1.0000   
         H         H         1.0       0.3904154602694909  0.04815866742008904           0.8898931679595249 1.0000   
         H         H         1.0       0.35572357359134804           0.2646781556029258 0.8599333419113572 1.0000   
         H         H         1.0       0.3650390254458063  0.28044362574168347           0.787371858959766  1.0000   
         H         H         1.0       0.34050153186013044           0.148732885900792  0.7506286570044614 1.0000   
         H         H         1.0       0.33173665799417806           0.12617155484460293          0.8201325320355083 1.0000   
         H         H         1.0       0.3078443288303524  0.11703293693951636           0.8730969276200571 1.0000   
         H         H         1.0       0.2686623906495252  0.12233810352353525           0.8795696048121839 1.0000   
         H         H         1.0       0.27349971840051357           0.266955113384341  0.9043279987025004 1.0000   
         H         H         1.0       0.3134566495124633  0.2620189296080389  0.9015014465863761 1.0000   
         C         C         1.0       0.608433171399086   0.8826598163704316  0.01034821025311583          1.0000   
         C         C         1.0       0.5910633691535985  0.853300144049225   0.022230592429629548         1.0000   
         C         C         1.0       0.5854815833827788  0.8145781384071801  0.9977781211384014 1.0000   
         C         C         1.0       0.5981220705612132  0.8038646416530112  0.9615984210715917 1.0000   
         C         C         1.0       0.615047467765802   0.8348666567971204  0.9508677704466221 1.0000   
         C         C         1.0       0.6191762579804029  0.8719169476988057  0.9755457695498178 1.0000   
         H         H         1.0       0.5823938192171636  0.8622299703227666  0.051212075846994276         1.0000   
         H         H         1.0       0.5702446576227534  0.7942204174901711  0.004851489617007543         1.0000   
         H         H         1.0       0.6252320929388435  0.8302913926227165  0.9218303152093842 1.0000   
         H         H         1.0       0.6325162095954089  0.895254807571199   0.9652395330733451 1.0000   
         C         C         1.0       0.599920594915222   0.7998554088557739  0.8654478421489094 1.0000   
         C         C         1.0       0.6016999871336802  0.7590490923055837  0.8876505257855151 1.0000   
         C         C         1.0       0.6095488597919358  0.7193882162042259  0.8676383953214085 1.0000   
         C         C         1.0       0.616812540390182   0.7218042774266817  0.8278733935365429 1.0000   
         C         C         1.0       0.6173713263751379  0.7643402814139141  0.8072278788030891 1.0000   
         C         C         1.0       0.6088503974871535  0.8040440453717719  0.8267777492858607 1.0000   
         C         C         1.0       0.5939981231160056  0.7572298559338851  0.9347997593457497 1.0000   
         C         C         1.0       0.5691502843800501  0.7435052149372162  0.9273014527761672 1.0000   
         C         C         1.0       0.563233479635357   0.6970889007840863  0.92173880844704   1.0000   
         C         C         1.0       0.5416281982749744  0.6853286177632187  0.9136487402698724 1.0000   
         C         C         1.0       0.5250824158806571  0.7174712670956132  0.9136625031271637 1.0000   
         C         C         1.0       0.5312429066695065  0.762448149179843   0.9172748681204405 1.0000   
         C         C         1.0       0.55330941483465    0.7761337709010585  0.9249971926187927 1.0000   
         C         C         1.0       0.629646399160826   0.7119075734852256  0.9603993927038036 1.0000   
         C         C         1.0       0.6412519072897654  0.6896579707149584  0.9930346322014268 1.0000   
         C         C         1.0       0.6307907658008564  0.6755329700032064  0.02888566245290606          1.0000   
         C         C         1.0       0.6076620131913266  0.6813299753912861  0.031004069997164936         1.0000   
         C         C         1.0       0.5969786773548784  0.7045949769507447  0.9993347793735468 1.0000   
         C         C         1.0       0.6075955583742306  0.7212405117330415  0.9643348519758248 1.0000   
         C         C         1.0       0.644573619881356   0.652829297371172   0.0659006429556479 1.0000   
         C         C         1.0       0.6351655186525044  0.5117392731234806  0.014462480088777992         1.0000   
         C         C         1.0       0.6531374052161908  0.5377953668986871  0.0027384037715976195        1.0000   
         C         C         1.0       0.6562574907121824  0.5815162856496184  0.019997803557143277         1.0000   
         C         C         1.0       0.6428690844706085  0.5994580295547636  0.05110471096147915          1.0000   
         C         C         1.0       0.6244496660388411  0.5717424118269799  0.06254205424118559          1.0000   
         C         C         1.0       0.6198237004644506  0.5301570584490568  0.042613477047382206         1.0000   
         C         C         1.0       0.6365586806776248  0.6686871904292173  0.10981510586643443          1.0000   
         C         C         1.0       0.6297376321324649  0.7159154776399859  0.11556269297425772          1.0000   
         C         C         1.0       0.6230917442363659  0.7328460003072604  0.1545822254204432 1.0000   
         C         C         1.0       0.6231033141484409  0.7005876448826676  0.1875124272328277 1.0000   
         C         C         1.0       0.6297971021304651  0.6545302906478876  0.18209661456117104          1.0000   
         C         C         1.0       0.6363535450820079  0.6411335434025013  0.14442974531691916          1.0000   
         C         C         1.0       0.6873743250548848  0.6382832639342555  0.08122266910100079          1.0000   
         C         C         1.0       0.709520731297522   0.6522763524591045  0.08157936028152117          1.0000   
         C         C         1.0       0.7162108085209011  0.6991147143510732  0.07396152309157031          1.0000   
         C         C         1.0       0.6997541919824691  0.7307244761904176  0.06439682682181816          1.0000   
         C         C         1.0       0.6775138207012317  0.7165114286269929  0.0634104591374475 1.0000   
         C         C         1.0       0.6708051453332462  0.6695001731576     0.06935747744071956          1.0000   
         H         H         1.0       0.590565707374965   0.8300651539553429  0.8771096573546154 1.0000   
         H         H         1.0       0.6109977324114253  0.6843272697317184  0.8829393889265038 1.0000   
         H         H         1.0       0.6237046996293769  0.69154578722403    0.8143976767225231 1.0000   
         H         H         1.0       0.6057932802482942  0.8356311670646108  0.8094377453943151 1.0000   
         H         H         1.0       0.5756821727540046  0.6703190576503716  0.9195715878760773 1.0000   
         H         H         1.0       0.5373662016004042  0.647914250762706   0.9114291689459791 1.0000   
         H         H         1.0       0.520460071034472   0.7903257017682768  0.9157875332481129 1.0000   
         H         H         1.0       0.5582386324887311  0.8129629673095382  0.9254340750177074 1.0000   
         H         H         1.0       0.6373069307438766  0.7243157038464919  0.9340209319217601 1.0000   
         H         H         1.0       0.6589786343045     0.6782934164328152  0.9899308512293924 1.0000   
         H         H         1.0       0.5985585024694676  0.6650750773476068  0.05625646828253965          1.0000   
         H         H         1.0       0.5800824751905297  0.7117906214743251  0.0050454221965618995        1.0000   
         H         H         1.0       0.6632134793477475  0.5260588424349281  0.9777507275307943 1.0000   
         H         H         1.0       0.6685624426959166  0.6015571134400653  0.0051615687857233805        1.0000   
         H         H         1.0       0.6114251475291633  0.5891763559415193  0.0801099299532139 1.0000   
         H         H         1.0       0.6048134556242063  0.5107350460923469  0.04792603416681864          1.0000   
         H         H         1.0       0.626525198153544   0.7408814197161552  0.08965176734028901          1.0000   
         H         H         1.0       0.6196859863862708  0.7686861827865052  0.15709844278081683          1.0000   
         H         H         1.0       0.6314431785498     0.6300254930153463  0.20609718854063044          1.0000   
         H         H         1.0       0.646851238094661   0.6110106136954591  0.14541319490195762          1.0000   
         H         H         1.0       0.6840162217545345  0.6025420160625875  0.09080893399113461          1.0000   
         H         H         1.0       0.7233546411098141  0.6290718213043103  0.087781496046617  1.0000   
         H         H         1.0       0.7048612899887371  0.7665716280355453  0.05846328472580856          1.0000   
         H         H         1.0       0.6659557365222339  0.7447407302490741  0.055140088884777096         1.0000   
         C         C         1.0       0.616539213614912   0.9287991912753022  0.4717229524765158 1.0000   
         C         C         1.0       0.5992646948935492  0.9046623875304209  0.4893208499561029 1.0000   
         C         C         1.0       0.5943211304373812  0.8617741061551903  0.47386519714522723          1.0000   
         C         C         1.0       0.6052167496058164  0.8409180948245147  0.4402824627746977 1.0000   
         C         C         1.0       0.6247995821129706  0.8645561310524987  0.42716182313119117          1.0000   
         C         C         1.0       0.6303404281899577  0.9074853513482468  0.4428830384519582 1.0000   
         H         H         1.0       0.5895274467720044  0.9198202062544842  0.5149004913665709 1.0000   
         H         H         1.0       0.5813241019770075  0.8419032122045329  0.4873774740729894 1.0000   
         H         H         1.0       0.6356136557992211  0.8495192983719602  0.4035201749190137 1.0000   
         H         H         1.0       0.6462128077600421  0.9235233847485511  0.43433068870783775          1.0000   
         C         C         1.0       0.6064244130835044  0.8131947950586099  0.34271048317578473          1.0000   
         C         C         1.0       0.6061571543634613  0.78087706452167    0.3732540231850301 1.0000   
         C         C         1.0       0.6109625109015018  0.7348089727351651  0.3627034545145513 1.0000   
         C         C         1.0       0.6212407190272915  0.7264678231797176  0.3258471650721076 1.0000   
         C         C         1.0       0.622813244735195   0.760735579355708   0.2956136699181466 1.0000   
         C         C         1.0       0.6142247993376373  0.804857553618155   0.30381890171431125          1.0000   
         C         C         1.0       0.5981458866859655  0.7887975827086284  0.42160473116498803          1.0000   
         C         C         1.0       0.5717044885810844  0.7834650350059875  0.4182405046630171 1.0000   
         C         C         1.0       0.5604263464346039  0.7402287492336093  0.4193757077456971 1.0000   
         C         C         1.0       0.5374584580758945  0.7366455799234939  0.4193497570980895 1.0000   
         C         C         1.0       0.5251407195949129  0.7785742745443821  0.41712200914912473          1.0000   
         C         C         1.0       0.5360040842914875  0.8192474322399133  0.4078728469060784 1.0000   
         C         C         1.0       0.558726693171823   0.8209119142295727  0.40721193960201607          1.0000   
         C         C         1.0       0.630835543064815   0.7439538386426864  0.4544103994367285 1.0000   
         C         C         1.0       0.6416457887139042  0.7305310384558049  0.48942463209199444          1.0000   
         C         C         1.0       0.6323063773039634  0.7243359389762946  0.528066390628165  1.0000   
         C         C         1.0       0.6091511108454728  0.7303128296107582  0.5267851090993435 1.0000   
         C         C         1.0       0.5973613956721853  0.7433364782112138  0.49345057964808   1.0000   
         C         C         1.0       0.6084986791944169  0.7560517843117761  0.4570125008697142 1.0000   
         C         C         1.0       0.6458237418551708  0.7011881653270892  0.5664497284559817 1.0000   
         C         C         1.0       0.6363203838014986  0.5564547734278066  0.523226265273958  1.0000   
         C         C         1.0       0.6562758868252508  0.5769631351121027  0.5211588467517155 1.0000   
         C         C         1.0       0.6594739569801548  0.6218382286998723  0.5335857066742807 1.0000   
         C         C         1.0       0.6423723872943667  0.6471602752731498  0.5530232922464977 1.0000   
         C         C         1.0       0.6219002687197258  0.6257094720242858  0.5556001740910415 1.0000   
         C         C         1.0       0.6187191860920382  0.579955492904171   0.5403819575964355 1.0000   
         C         C         1.0       0.6349289174178971  0.711303816574319   0.6117599403899224 1.0000   
         C         C         1.0       0.6286058568492175  0.7572775548219047  0.6201920205427107 1.0000   
         C         C         1.0       0.6191987539126258  0.7672888170024659  0.6583243462885273 1.0000   
         C         C         1.0       0.6181953560473431  0.733772698405093   0.6893053453560388 1.0000   
         C         C         1.0       0.6253558032429039  0.6893922818165383  0.6800435505996411 1.0000   
         C         C         1.0       0.6345632606759255  0.6788018007692588  0.6443835335774595 1.0000   
         C         C         1.0       0.6866613730070452  0.6884878634701287  0.5939063735269029 1.0000   
         C         C         1.0       0.7088562833113715  0.701934310701494   0.5986264366952679 1.0000   
         C         C         1.0       0.7172172774723782  0.7446876179661747  0.585182094923539  1.0000   
         C         C         1.0       0.7012998059295599  0.7753663255650483  0.5711737142938149 1.0000   
         C         C         1.0       0.6794494036344806  0.7611511740740421  0.5631294247199125 1.0000   
         C         C         1.0       0.6719341307723556  0.7163572171996984  0.5728692929684517 1.0000   
         H         H         1.0       0.6001199920881494  0.8499112849545201  0.3462761295703303 1.0000   
         H         H         1.0       0.6088770590113506  0.7054363807809615  0.3826134162940883 1.0000   
         H         H         1.0       0.6266285189213886  0.691429839915237   0.31948871785273497          1.0000   
         H         H         1.0       0.6127872459532168  0.831527167582616   0.2797423964262719 1.0000   
         H         H         1.0       0.5703416179584891  0.7081315449310934  0.42453897333472773          1.0000   
         H         H         1.0       0.5293395815098031  0.7008707695590842  0.41919745163862426          1.0000   
         H         H         1.0       0.5277186263222321  0.8531352962337352  0.4025659836587592 1.0000   
         H         H         1.0       0.56650768403671    0.8526464678895556  0.40159771232272634          1.0000   
         H         H         1.0       0.6405748163549042  0.7556269473345537  0.42961669698691607          1.0000   
         H         H         1.0       0.6591073282904226  0.7190546395303721  0.48497707717144567          1.0000   
         H         H         1.0       0.6001368143718139  0.7266584070809341  0.5560834711759043 1.0000   
         H         H         1.0       0.5804876052979757  0.7523074871963391  0.49844198995476585          1.0000   
         H         H         1.0       0.6693991669905762  0.5576482287115648  0.5037482616067304 1.0000   
         H         H         1.0       0.6757468706219144  0.6365658005557036  0.5276393662986651 1.0000   
         H         H         1.0       0.6083937885488698  0.6446417169012646  0.570099962440282  1.0000   
         H         H         1.0       0.6020646253833112  0.563492398234634   0.5408820685459859 1.0000   
         H         H         1.0       0.6270812738768436  0.7872440354010507  0.5988681841770955 1.0000   
         H         H         1.0       0.6134356960974979  0.801016049300564   0.6660469316627324 1.0000   
         H         H         1.0       0.6249620600496546  0.666922953504621   0.7057057907363551 1.0000   
         H         H         1.0       0.6416933186367473  0.6433364847334393  0.643986048526257  1.0000   
         H         H         1.0       0.6830699637469865  0.6540805902722747  0.6059587678442951 1.0000   
         H         H         1.0       0.7193317176634579  0.6773535933264186  0.6143238076297178 1.0000   
         H         H         1.0       0.7056066084871808  0.8112708763020068  0.5658361887467176 1.0000   
         H         H         1.0       0.6685684669467553  0.7845187479054851  0.5453601912227658 1.0000   
         C         C         1.0       0.8871103719617768  0.9209715032680856  0.22846799232172976          1.0000   
         C         C         1.0       0.9049715816879961  0.894674219074187   0.215852595336725  1.0000   
         C         C         1.0       0.909036430761964   0.8504410742986356  0.23107443972654187          1.0000   
         C         C         1.0       0.8936455917687224  0.8296537962680878  0.2588575021490415 1.0000   
         C         C         1.0       0.8755765167149305  0.8578068173929021  0.27046282903844615          1.0000   
         C         C         1.0       0.871801646282999   0.9023248976240728  0.2569864486660999 1.0000   
         H         H         1.0       0.916611143122394   0.9090691173446703  0.19313291207943314          1.0000   
         H         H         1.0       0.9209602763674636  0.8256462893977705  0.21623031822850886          1.0000   
         H         H         1.0       0.8634085426335059  0.8423716612174684  0.2894420911557865 1.0000   
         H         H         1.0       0.8565826551778748  0.922474719431888   0.2624379643378384 1.0000   
         C         C         1.0       0.8886358954185478  0.7879863529833737  0.3459647913232657 1.0000   
         C         C         1.0       0.8859461666418162  0.760458914021742   0.31129014002827116          1.0000   
         C         C         1.0       0.8778560679810221  0.7155340487986532  0.31503236009747193          1.0000   
         C         C         1.0       0.868485014110452   0.7013926673534464  0.35272359671294473          1.0000   
         C         C         1.0       0.8702909555227437  0.7303481176431295  0.3860657051031371 1.0000   
         C         C         1.0       0.8818364257453691  0.7735248452042818  0.3844051072918877 1.0000   
         C         C         1.0       0.8964439014736679  0.77377558903384    0.2698746876889551 1.0000   
         C         C         1.0       0.9221436105243916  0.7624316394132067  0.2765016776565363 1.0000   
         C         C         1.0       0.932198814527739   0.7218075735723355  0.2638697318505588 1.0000   
         C         C         1.0       0.9530735395652716  0.7097794669565882  0.27531904474707375          1.0000   
         C         C         1.0       0.9652470369464649  0.738239781567302   0.3004838799458135 1.0000   
         C         C         1.0       0.9559139027476037  0.780965430445888   0.31263133650893793          1.0000   
         C         C         1.0       0.9351736429244509  0.7927707768584442  0.29974539730713595          1.0000   
         C         C         1.0       0.8619817909714255  0.7560426376940937  0.22767832295203372          1.0000   
         C         C         1.0       0.851286524669722   0.7384693829810461  0.19331891455382308          1.0000   
         C         C         1.0       0.8629106047072788  0.7209695063735356  0.1593388442018577 1.0000   
         C         C         1.0       0.8859068279545768  0.7268824221267021  0.16096131541901507          1.0000   
         C         C         1.0       0.8961134892236114  0.7436118743940938  0.19641279602360345          1.0000   
         C         C         1.0       0.8842360062789049  0.7567213276032961  0.2297943827172047 1.0000   
         C         C         1.0       0.84900697861449    0.691784391329785   0.12797348740559275          1.0000   
         C         C         1.0       0.8699587596603111  0.5523251872884163  0.1744251970066878 1.0000   
         C         C         1.0       0.8495164482048003  0.5709421916907069  0.18460917987320274          1.0000   
         C         C         1.0       0.8438777048490016  0.615125116836066   0.1713896816674701 1.0000   
         C         C         1.0       0.8562080446138612  0.6396618838188607  0.14261398617536766          1.0000   
         C         C         1.0       0.8770664545483265  0.6194930743996354  0.13131719595258165          1.0000   
         C         C         1.0       0.8837489349762209  0.5763004551843509  0.14924941792906074          1.0000   
         C         C         1.0       0.8555425958035591  0.7014251539382341  0.08176175797010311          1.0000   
         C         C         1.0       0.8618179966783124  0.745447993886845   0.0700503175909624 1.0000   
         C         C         1.0       0.8687222356068582  0.7522456097087932  0.029233556630074868         1.0000   
         C         C         1.0       0.8673105132159415  0.7168756402008093  0.9998601622363315 1.0000   
         C         C         1.0       0.8607046157598609  0.6727830162982958  0.012300493663873376         1.0000   
         C         C         1.0       0.8557028753142562  0.6669616647300143  0.053039330143307126         1.0000   
         C         C         1.0       0.807793451218212   0.6647451751003639  0.11377645764264838          1.0000   
         C         C         1.0       0.7857905672602563  0.6727451749886513  0.11062916125243019          1.0000   
         C         C         1.0       0.7768436631774281  0.7184140630773966  0.11774226971285577          1.0000   
         C         C         1.0       0.7911006952353865  0.7550954463251278  0.1266600557225261 1.0000   
         C         C         1.0       0.8133402695086708  0.7456520567059597  0.1279377283259471 1.0000   
         C         C         1.0       0.8224730061598556  0.7014532896271909  0.12211863909500652          1.0000   
         H         H         1.0       0.8967526833501185  0.8201045509210049  0.3458674454080763 1.0000   
         H         H         1.0       0.8767680187177284  0.6899256711196332  0.29000671463780264          1.0000   
         H         H         1.0       0.8628468278690984  0.6650935145365213  0.3554560727777123 1.0000   
         H         H         1.0       0.8849394326690194  0.7979765721182165  0.41018733710983424          1.0000   
         H         H         1.0       0.9233808041413286  0.6958673724886837  0.24428902748872774          1.0000   
         H         H         1.0       0.9603406324526768  0.6793222850262878  0.2600961474042211 1.0000   
         H         H         1.0       0.9636154932656316  0.8019193044403518  0.3364549157084951 1.0000   
         H         H         1.0       0.9305937349033092  0.8256686717520598  0.31187238215594104          1.0000   
         H         H         1.0       0.8521092801633819  0.769092372736294   0.25248278041784544          1.0000   
         H         H         1.0       0.8334954935691921  0.7352516285167661  0.19711827620760475          1.0000   
         H         H         1.0       0.8966870996479865  0.7132803378141994  0.1367223350740244 1.0000   
         H         H         1.0       0.9140696989669802  0.7480998081193933  0.1901685324117669 1.0000   
         H         H         1.0       0.8375987887076413  0.5495991934167298  0.20369695303395682          1.0000   
         H         H         1.0       0.8287985286997452  0.6302404121168004  0.18677572551077107          1.0000   
         H         H         1.0       0.8888144966400854  0.6373744605916278  0.11119087726141114          1.0000   
         H         H         1.0       0.8998994966745196  0.5640064779408017  0.14513907189212955          1.0000   
         H         H         1.0       0.8640192984570151  0.7762303621813796  0.08968721912677685          1.0000   
         H         H         1.0       0.8745378471898696  0.7852414509504257  0.020015687653984253         1.0000   
         H         H         1.0       0.8580161598146252  0.646660358895277   0.9913412804199951 1.0000   
         H         H         1.0       0.8492572590486992  0.6316433689459876  0.06011450149109456          1.0000   
         H         H         1.0       0.8134337243038544  0.6284648135287932  0.10903695477388242          1.0000   
         H         H         1.0       0.7752763421746345  0.6432244117561985  0.10485198305772697          1.0000   
         H         H         1.0       0.7862418135444834  0.7900198896237829  0.12595817809569296          1.0000   
         H         H         1.0       0.8245069437950607  0.7745590041597701  0.1344525688830704 1.0000   
         C         C         1.0       0.8825334567143192  0.9069045682208609  0.7009861264616657 1.0000   
         C         C         1.0       0.9007182037930399  0.8794140261617812  0.6893504680522492 1.0000   
         C         C         1.0       0.9031067791296477  0.8330503999308507  0.7024540113849359 1.0000   
         C         C         1.0       0.8890059356005657  0.8168535221328995  0.7322651516252299 1.0000   
         C         C         1.0       0.8698038847618932  0.8414306655291567  0.7398887435294911 1.0000   
         C         C         1.0       0.866343601988978   0.8850082129841771  0.7247245746322661 1.0000   
         H         H         1.0       0.9138208640616473  0.8910016200503179  0.6676728931117356 1.0000   
         H         H         1.0       0.9185539421463277  0.8150717476658965  0.6947983892860602 1.0000   
         H         H         1.0       0.8574520282150069  0.8263469017975869  0.7623448753318601 1.0000   
         H         H         1.0       0.8513638670588525  0.9028394695970468  0.7323914128656475 1.0000   
         C         C         1.0       0.8896736079738262  0.7985218565145251  0.8310258627396694 1.0000   
         C         C         1.0       0.8881320692856656  0.7628838239089556  0.8001077890557038 1.0000   
         C         C         1.0       0.8810838872260834  0.7216169997948904  0.8163189584472299 1.0000   
         C         C         1.0       0.8724616269279107  0.7173095272670061  0.8553153519683069 1.0000   
         C         C         1.0       0.8741968094833374  0.7518513126287458  0.8832215726888851 1.0000   
         C         C         1.0       0.8822047067460955  0.794554990776431   0.8708994825090243 1.0000   
         C         C         1.0       0.8955100904286093  0.7671852938908558  0.7537051170726176 1.0000   
         C         C         1.0       0.9203066708216479  0.7562439705453627  0.7630479392541993 1.0000   
         C         C         1.0       0.9289653460574534  0.711268800538283   0.7635960970450809 1.0000   
         C         C         1.0       0.9509789899135279  0.7046052935356366  0.7716055306996478 1.0000   
         C         C         1.0       0.9651044153645323  0.74204555040849    0.7793750375395154 1.0000   
         C         C         1.0       0.9558402635007679  0.7865359573610081  0.7828674956098761 1.0000   
         C         C         1.0       0.9340685960362556  0.7939238717630539  0.7717889231712628 1.0000   
         C         C         1.0       0.8612053719299441  0.7248943344448133  0.7270697084506784 1.0000   
         C         C         1.0       0.8486934084929697  0.7021587585536916  0.6983541250848844 1.0000   
         C         C         1.0       0.8576395976876312  0.6894279828459795  0.6601270482597459 1.0000   
         C         C         1.0       0.8804350775836548  0.6933881500571791  0.6572494810607836 1.0000   
         C         C         1.0       0.8928377951328501  0.7143562488328685  0.6874057203011145 1.0000   
         C         C         1.0       0.8834145158444134  0.7354036598328089  0.7213127919256227 1.0000   
         C         C         1.0       0.8429990726859405  0.6675157326086067  0.6256100931734526 1.0000   
         C         C         1.0       0.8493886823325384  0.5216462512215867  0.6678523838945444 1.0000   
         C         C         1.0       0.8309480846650966  0.5460458926907504  0.678517253866553  1.0000   
         C         C         1.0       0.8294364499206802  0.5925435115072945  0.6675819991931362 1.0000   
         C         C         1.0       0.8447416805559383  0.6138419868354053  0.6398657784414528 1.0000   
         C         C         1.0       0.8631977795092773  0.5869005711240995  0.630000056656214  1.0000   
         C         C         1.0       0.8654570589348777  0.5413063782642045  0.6426276208692357 1.0000   
         C         C         1.0       0.851943744886022   0.6763464995483081  0.5786487497141363 1.0000   
         C         C         1.0       0.8640144032072872  0.7151125218018763  0.5683580097897585 1.0000   
         C         C         1.0       0.8722276802942099  0.7203892889762042  0.529420213064412  1.0000   
         C         C         1.0       0.8697377007163103  0.6865616912672744  0.4983648480386695 1.0000   
         C         C         1.0       0.8577876130036662  0.6477701659670472  0.5090722244507897 1.0000   
         C         C         1.0       0.8482080897457244  0.6433014888194879  0.5484317750750757 1.0000   
         C         C         1.0       0.8005121695812294  0.6648974810719518  0.6120659026101485 1.0000   
         C         C         1.0       0.7801760722379351  0.684467087681929   0.6101305097537554 1.0000   
         C         C         1.0       0.7771880694244482  0.7300087183447861  0.6178204157029163 1.0000   
         C         C         1.0       0.7956876837564787  0.7571223528807338  0.624330628116847  1.0000   
         C         C         1.0       0.8160222553723662  0.7376439257823183  0.6284008074911765 1.0000   
         C         C         1.0       0.8191711835354805  0.6906244658509811  0.6222690251216897 1.0000   
         H         H         1.0       0.8960613768693443  0.8312107728085802  0.8226818365297037 1.0000   
         H         H         1.0       0.8802493279585196  0.6917473594614468  0.7958724628669792 1.0000   
         H         H         1.0       0.8639021937049546  0.6848789366038646  0.8647185948346257 1.0000   
         H         H         1.0       0.8805096820267354  0.8241559680064883  0.8900793104812449 1.0000   
         H         H         1.0       0.9196698993024726  0.6818156724636892  0.7546318856342082 1.0000   
         H         H         1.0       0.9575855026674247  0.6704457944181835  0.7681402001787971 1.0000   
         H         H         1.0       0.965508531772702   0.8156633744615064  0.7909192977152629 1.0000   
         H         H         1.0       0.9268127624706304  0.8296919483102244  0.7743807015499065 1.0000   
         H         H         1.0       0.8537079596667463  0.740516557732753   0.7533838711363147 1.0000   
         H         H         1.0       0.832024495317412   0.6971485429541922  0.7069301508013073 1.0000   
         H         H         1.0       0.8885221672005958  0.6775736206796311  0.6304460246087896 1.0000   
         H         H         1.0       0.9111757378404011  0.7176728365757896  0.6829828867200004 1.0000   
         H         H         1.0       0.8173583357752081  0.5315230111988671  0.6951421681918377 1.0000   
         H         H         1.0       0.8162190511880844  0.6136556304750332  0.6785371915285977 1.0000   
         H         H         1.0       0.8771840226247418  0.6031078999335616  0.6150440206139468 1.0000   
         H         H         1.0       0.8787580609734394  0.5164753105409795  0.6380297133236326 1.0000   
         H         H         1.0       0.8670497124780555  0.7411290481651825  0.592401617980226  1.0000   
         H         H         1.0       0.8828273510438307  0.750577589821486   0.5213293671156086 1.0000   
         H         H         1.0       0.8549162234591732  0.6206211600136111  0.4855385738185915 1.0000   
         H         H         1.0       0.8387813352950759  0.6099147456599687  0.553597499943414  1.0000   
         H         H         1.0       0.8017761249103434  0.6283339996127838  0.6060995412620175 1.0000   
         H         H         1.0       0.7661253323025663  0.6609237767992578  0.6068293414191648 1.0000   
         H         H         1.0       0.7955524519252752  0.7953546007906919  0.6249535907795469 1.0000   
         H         H         1.0       0.8287260517882135  0.7589719031906662  0.6398788757392946 1.0000   
         C         C         1.0       0.10997292776134174           0.5629951934333415 0.21359570365729322          1.0000   
         C         C         1.0       0.09125703106277525           0.5896547008385677 0.20633261444813686          1.0000   
         C         C         1.0       0.08852997599259026           0.6323140627929656 0.22371412559974638          1.0000   
         C         C         1.0       0.10390397047078058           0.6499273804903011 0.25195856796934213          1.0000   
         C         C         1.0       0.12302467359969345           0.6243583336000524 0.2569871331670703 1.0000   
         C         C         1.0       0.1260528391977946  0.5822944599067416  0.23811877249322186          1.0000   
         H         H         1.0       0.07901222791834778           0.5760965988068466 0.18795036008087251          1.0000   
         H         H         1.0       0.07398824818475346           0.6477764750990176 0.212912877639721  1.0000   
         H         H         1.0       0.1365519829580125  0.6395460221834675  0.27596440543861345          1.0000   
         H         H         1.0       0.14148228479721298           0.5662827423818879 0.2390470656658384 1.0000   
         C         C         1.0       0.11221459999839142           0.674827011017364  0.34352877046601454          1.0000   
         C         C         1.0       0.10966620098345702           0.7102193722430505 0.31475361193623985          1.0000   
         C         C         1.0       0.11774573682140974           0.7546453331636771 0.32407937919542845          1.0000   
         C         C         1.0       0.12727424142959073           0.7630581770723524 0.3608916715689075 1.0000   
         C         C         1.0       0.12939519494684737           0.7289818669253284 0.39012216233588565          1.0000   
         C         C         1.0       0.12292482831923177           0.6839827926892715 0.3799988643728016 1.0000   
         C         C         1.0       0.09934156825888896           0.7019564147940279 0.2689404648486714 1.0000   
         C         C         1.0       0.07516431428797278           0.7170083395502607 0.2793338001967277 1.0000   
         C         C         1.0       0.06735107138426658           0.7619456037951824 0.2699855535930173 1.0000   
         C         C         1.0       0.044972255234011646          0.7716363694392826 0.2718823453178098 1.0000   
         C         C         1.0       0.029649201888966106          0.7378325169671627 0.28047752698815426          1.0000   
         C         C         1.0       0.037798800002500445          0.6952981540574364 0.29433862917673775          1.0000   
         C         C         1.0       0.05951911658868075           0.6853279601374815 0.29257517579492337          1.0000   
         C         C         1.0       0.1353604355369075  0.7346185298898621  0.234353426590235  1.0000   
         C         C         1.0       0.14770164530509336           0.7532564163980849 0.20266676311853796          1.0000   
         C         C         1.0       0.13673994573996792           0.7675434801460415 0.16745999423920105          1.0000   
         C         C         1.0       0.11393385868736382           0.7611896593441501 0.16557681815819322          1.0000   
         C         C         1.0       0.10169356494714774           0.7410539752427561 0.19746744727251286          1.0000   
         C         C         1.0       0.11278728171679378           0.7277879922602616 0.23298635789588923          1.0000   
         C         C         1.0       0.15054726948832034           0.7919875705793762 0.12969970904872596          1.0000   
         C         C         1.0       0.13844341045747002           0.930253396964145  0.1853445207181894 1.0000   
         C         C         1.0       0.15540761572124248           0.9015912289818855 0.19771337811210962          1.0000   
         C         C         1.0       0.16003289600759413           0.8589724415151072 0.17844239530514222          1.0000   
         C         C         1.0       0.14590371119680953           0.8430843541329747 0.145888839382362  1.0000   
         C         C         1.0       0.12744735096257023           0.8704293963035008 0.13592511652988695          1.0000   
         C         C         1.0       0.12363378456002663           0.9131106882143281 0.15478581741566663          1.0000   
         C         C         1.0       0.14294558177366076           0.7758672906175117 0.08373662775839051          1.0000   
         C         C         1.0       0.13514423680749127           0.7308912183362533 0.07492464125580103          1.0000   
         C         C         1.0       0.12544343965607402           0.718793616914116  0.03767184678195726          1.0000   
         C         C         1.0       0.12687228585796567           0.7524055918218688 0.0045204860394856584        1.0000   
         C         C         1.0       0.13778421627770548           0.7926587002040075 0.011115783565210256         1.0000   
         C         C         1.0       0.1440484459024267  0.806255006829808   0.05123561971772878          1.0000   
         C         C         1.0       0.1928845513509323  0.8089962885298664  0.12003387120482434          1.0000   
         C         C         1.0       0.21389680980730047           0.795474997639503  0.11151044370451059          1.0000   
         C         C         1.0       0.22021756270374146           0.7495715498010914 0.12067164144956942          1.0000   
         C         C         1.0       0.20306244499344936           0.7173716942951207 0.12965422933104637          1.0000   
         C         C         1.0       0.18198612272989648           0.730991904451582  0.1326533035545595 1.0000   
         C         C         1.0       0.17591385473488488           0.777272672485532  0.1285516500188403 1.0000   
         H         H         1.0       0.10850957163005427           0.6400020587236331 0.336376146314743  1.0000   
         H         H         1.0       0.11675946106922351           0.7835715450381302 0.30084416910919026          1.0000   
         H         H         1.0       0.13234464556753905           0.7973679352864836 0.36910248189535544          1.0000   
         H         H         1.0       0.1253722454106093  0.6540489233540777  0.4011203014442815 1.0000   
         H         H         1.0       0.07840681191919793           0.7908989265963888 0.2616296517771524 1.0000   
         H         H         1.0       0.038413636847106844          0.8035704197305595 0.25698355040221726          1.0000   
         H         H         1.0       0.027261642892952267          0.6690105414378326 0.305920640450745  1.0000   
         H         H         1.0       0.06691063644105544           0.6520635203026822 0.3041974078899118 1.0000   
         H         H         1.0       0.1440932746101123  0.7215441661654162  0.26155726049883093          1.0000   
         H         H         1.0       0.1654383225936145  0.7532312348501479  0.20505490772466192          1.0000   
         H         H         1.0       0.10603833326553685           0.7687148432057548 0.1376194905898468 1.0000   
         H         H         1.0       0.08476191409784735           0.741650810773726  0.19594725158812004          1.0000   
         H         H         1.0       0.16936194829172724           0.9124095252806116 0.21690637728334533          1.0000   
         H         H         1.0       0.17585002429138571           0.8420458901860418 0.18620088749694122          1.0000   
         H         H         1.0       0.11665323175058415           0.8639214445286321 0.1086321491702782 1.0000   
         H         H         1.0       0.10921016806998193           0.9348904134983336 0.14618697376276885          1.0000   
         H         H         1.0       0.13642067912126174           0.7027604044682756 0.09709848100308846          1.0000   
         H         H         1.0       0.11613265954852539           0.688297390325041  0.034849612318212125         1.0000   
         H         H         1.0       0.13655255511761413           0.8199346235742769 0.9899601358392512 1.0000   
         H         H         1.0       0.15207457695280255           0.8414325915725261 0.05699632911118107          1.0000   
         H         H         1.0       0.18804692985101654           0.8466445095270768 0.1160779919774961 1.0000   
         H         H         1.0       0.22804296119269601           0.8212310777087024 0.10560987818400866          1.0000   
         H         H         1.0       0.20718247509285959           0.6820253625616808 0.13536593250632994          1.0000   
         H         H         1.0       0.1696534735208025  0.7043801556077545  0.13505324567249138          1.0000   
         C         C         1.0       0.11027453106191915           0.5352160190392262 0.7251825007466908 1.0000   
         C         C         1.0       0.09032748683799088           0.5572646655022438 0.7191129246256708 1.0000   
         C         C         1.0       0.0873792668077678  0.6017052591245939  0.7343539433922364 1.0000   
         C         C         1.0       0.10352926906022236           0.6258543874146006 0.7559091207056674 1.0000   
         C         C         1.0       0.12351381174442311           0.6028246968712757 0.7619466936410366 1.0000   
         C         C         1.0       0.12713741899865383           0.5580135545425934 0.7462453438503963 1.0000   
         H         H         1.0       0.07802425496272847           0.5433172823396712 0.6988140485458333 1.0000   
         H         H         1.0       0.07164375437969846           0.6177354601720648 0.7254971341646994 1.0000   
         H         H         1.0       0.137607358827599   0.6200840083442783  0.7775048194070436 1.0000   
         H         H         1.0       0.14436601896045972           0.5435651683187126 0.7484777730606416 1.0000   
         C         C         1.0       0.10927284131241846           0.6612763817879578 0.8445521021854441 1.0000   
         C         C         1.0       0.1094481888417448  0.694489916509775   0.8124556340693592 1.0000   
         C         C         1.0       0.11593180147211468           0.7394459571878061 0.8244697387475806 1.0000   
         C         C         1.0       0.1254097589019764  0.7475598107674674  0.8621838937053673 1.0000   
         C         C         1.0       0.12581566752713066           0.7142303274782376 0.8919986634937954 1.0000   
         C         C         1.0       0.11849055330929845           0.6704452464924953 0.8823045681142891 1.0000   
         C         C         1.0       0.10042328270733379           0.6790176156513062 0.7680457151767348 1.0000   
         C         C         1.0       0.07497887302461712           0.6951154644489269 0.7722343252533932 1.0000   
         C         C         1.0       0.0687381821557861  0.7388018572547486  0.7601092917031653 1.0000   
         C         C         1.0       0.04706745732923024           0.7517924538122563 0.7562790013322636 1.0000   
         C         C         1.0       0.030162265575930214          0.7225951865106947 0.7679614712195048 1.0000   
         C         C         1.0       0.03639789712954412           0.6798990017051435 0.7860759829336283 1.0000   
         C         C         1.0       0.05853599255068522           0.6676770641190993 0.7894538645140466 1.0000   
         C         C         1.0       0.13779514234015114           0.7121313801270793 0.7368039244528752 1.0000   
         C         C         1.0       0.14765725113318667           0.7384387457101529 0.7059758035868001 1.0000   
         C         C         1.0       0.13734566208408497           0.747154164881895  0.6682850749291075 1.0000   
         C         C         1.0       0.11591929886413223           0.7322113202316858 0.6635564143307049 1.0000   
         C         C         1.0       0.10590373670907235           0.7089443630009663 0.694017273869594  1.0000   
         C         C         1.0       0.11513442560459758           0.7038212767052708 0.7322924953820932 1.0000   
         C         C         1.0       0.15001455225077495           0.7805496232439834 0.6342293456694326 1.0000   
         C         C         1.0       0.1297607726877307  0.9156440974015101  0.6854867400741232 1.0000   
         C         C         1.0       0.15036946892306122           0.8981468408690452 0.694764189654776  1.0000   
         C         C         1.0       0.15725791747330364           0.8565543389123365 0.6786963469437453 1.0000   
         C         C         1.0       0.1428538405997625  0.8307877050006557  0.6522519667012046 1.0000   
         C         C         1.0       0.12212608240976502           0.8494771560237127 0.6439150915645756 1.0000   
         C         C         1.0       0.11550283306994243           0.8909848587040142 0.6613590121539195 1.0000   
         C         C         1.0       0.1419870185235425  0.7731077936712195  0.5863782530986041 1.0000   
         C         C         1.0       0.1369989694339643  0.7288492233567053  0.5709177241190347 1.0000   
         C         C         1.0       0.1269780417102863  0.72380354675298    0.5330061853557254 1.0000   
         C         C         1.0       0.12783844766050714           0.761309605871355  0.5055134591277693 1.0000   
         C         C         1.0       0.13471628414400255           0.803564697899989  0.5176004618865411 1.0000   
         C         C         1.0       0.14328010821503634           0.807868643117317  0.5576441704281484 1.0000   
         C         C         1.0       0.18960165770452028           0.8117582319210921 0.6179265777744507 1.0000   
         C         C         1.0       0.21180604174972836           0.8053122878333051 0.6095029014072224 1.0000   
         C         C         1.0       0.2227446182741988  0.7652584177090958  0.6189749007085146 1.0000   
         C         C         1.0       0.21087349341109862           0.7269846141811532 0.6318788483535838 1.0000   
         C         C         1.0       0.18754242069510657           0.7305604955712024 0.6355835177582468 1.0000   
         C         C         1.0       0.17698016532372093           0.7727369554350686 0.6278363019775799 1.0000   
         H         H         1.0       0.10250875235416836           0.6285192074565021 0.8407855980050827 1.0000   
         H         H         1.0       0.11614989881040476           0.7667166875853988 0.7996335510902932 1.0000   
         H         H         1.0       0.13052239424685647           0.7817340557295112 0.8675967070301814 1.0000   
         H         H         1.0       0.11728218444787833           0.6406518614142463 0.9062437646514495 1.0000   
         H         H         1.0       0.08204254755273474           0.7653683735473675 0.7547305375424512 1.0000   
         H         H         1.0       0.04234384673999827           0.7859833079277226 0.7445682528374606 1.0000   
         H         H         1.0       0.0236612291094625  0.6557152562106865  0.7978807228666002 1.0000   
         H         H         1.0       0.06144465608487221           0.6331046259345954 0.8011348619233009 1.0000   
         H         H         1.0       0.1463651950028575  0.7047075727431534  0.7641198605833673 1.0000   
         H         H         1.0       0.16568675564027202           0.7467403723702798 0.7111987553152453 1.0000   
         H         H         1.0       0.10573969336819658           0.7442859499775781 0.6390093220490041 1.0000   
         H         H         1.0       0.0885203777730142  0.6978514493006612  0.6906990564928797 1.0000   
         H         H         1.0       0.16275646458492413           0.916010743996976  0.7137781717191687 1.0000   
         H         H         1.0       0.17382035814203523           0.8401313396312673 0.6861873409770463 1.0000   
         H         H         1.0       0.11043222861562518           0.8333859075515182 0.6226492704993589 1.0000   
         H         H         1.0       0.09911184415602015           0.9008805527589977 0.656443894299397  1.0000   
         H         H         1.0       0.1384512747592043  0.6966982160120831  0.5885637704501429 1.0000   
         H         H         1.0       0.12074832138315528           0.6895977139832249 0.5227635232746647 1.0000   
         H         H         1.0       0.13512414198251443           0.8311971198346183 0.49338611550341743          1.0000   
         H         H         1.0       0.14983417075030733           0.840031025764027  0.5707971515099893 1.0000   
         H         H         1.0       0.17996532285665753           0.8457835712502574 0.6121468843109796 1.0000   
         H         H         1.0       0.22153082823317805           0.8356869128736437 0.5978401546260004 1.0000   
         H         H         1.0       0.2193909101072047  0.6933524811008207  0.6345508358137644 1.0000   
         H         H         1.0       0.1769519370704076  0.7005370095982965  0.6404923882744801 1.0000   
         C         C         1.0       0.37921842534368827           0.5432611674064678 0.9455961317038227 1.0000   
         C         C         1.0       0.39951805288955916           0.5641822509025715 0.9543121691938012 1.0000   
         C         C         1.0       0.40240266951081516           0.6089767002882165 0.938268924058508  1.0000   
         C         C         1.0       0.3881101642635483  0.628601069506745   0.9082407377307535 1.0000   
         C         C         1.0       0.36921163846921917           0.6063791776171272 0.8988017199613632 1.0000   
         C         C         1.0       0.36401744495870386           0.5644537917520033 0.9201774745253615 1.0000   
         H         H         1.0       0.4115078806117882  0.5516345314821163  0.9775628022391013 1.0000   
         H         H         1.0       0.4165445470041544  0.626117028047204   0.9487324831945638 1.0000   
         H         H         1.0       0.3569871958531214  0.6240233626987383  0.8813179386259555 1.0000   
         H         H         1.0       0.3470707849890356  0.55260498446273    0.9166405575943647 1.0000   
         C         C         1.0       0.3826217396396191  0.6626030260391345  0.8174450389225748 1.0000   
         C         C         1.0       0.3832084998216953  0.6945648844638838  0.8517825525801385 1.0000   
         C         C         1.0       0.3779021733085471  0.7402695533591834  0.8440656103896654 1.0000   
         C         C         1.0       0.3720538227731847  0.7547066113540981  0.8050138822606824 1.0000   
         C         C         1.0       0.37097080068252036           0.7244649846802109 0.7723123171729309 1.0000   
         C         C         1.0       0.3761464169581625  0.6781707626296195  0.7786342604681397 1.0000   
         C         C         1.0       0.39295571960066855           0.6814089580847679 0.8957558178830487 1.0000   
         C         C         1.0       0.41924848043243507           0.6925243485213844 0.8877843592677623 1.0000   
         C         C         1.0       0.42857671211646686           0.7361535295539351 0.900896763123123  1.0000   
         C         C         1.0       0.4506461105880002  0.7458688355414717  0.8945754655308255 1.0000   
         C         C         1.0       0.4635864949876832  0.7142630420347522  0.8747340134092643 1.0000   
         C         C         1.0       0.45592540993992936           0.669450812798739  0.8656236668533719 1.0000   
         C         C         1.0       0.43370292782002234           0.6599237191718453 0.870877808625243  1.0000   
         C         C         1.0       0.35834237911088473           0.7120017064310935 0.9323697262841184 1.0000   
         C         C         1.0       0.3471447889305861  0.73075305581986    0.9633299441855168 1.0000   
         C         C         1.0       0.3580601873934444  0.7459323731826505  0.9996940846425931 1.0000   
         C         C         1.0       0.38039487296268204           0.7378708986010558 0.0010682306190470392        1.0000   
         C         C         1.0       0.39243350179538794           0.7162398989719206 0.9693899748924742 1.0000   
         C         C         1.0       0.380506696764437   0.705408272478516   0.9328768947061346 1.0000   
         C         C         1.0       0.34649380585696377           0.7786026990387375 0.032737599545281285         1.0000   
         C         C         1.0       0.35910802862034    0.9086338576498229  0.9622313647861026 1.0000   
         C         C         1.0       0.3387009204852251  0.8856990273785146  0.9584833164980422 1.0000   
         C         C         1.0       0.3340909476567908  0.8471116482901637  0.982308704441756  1.0000   
         C         C         1.0       0.3500159274388943  0.8265545981861012  0.007673633627929236         1.0000   
         C         C         1.0       0.36998931381578815           0.8493538356560085 0.010778335016605642         1.0000   
         C         C         1.0       0.37357571903726217           0.8917730977813796 0.9907579429153129 1.0000   
         C         C         1.0       0.35601048068381136           0.7800372025266296 0.07805412733381248          1.0000   
         C         C         1.0       0.36456437333432784           0.7395763550383331 0.09550986284154017          1.0000   
         C         C         1.0       0.3709810493486754  0.7355827364522372  0.1364900526777227 1.0000   
         C         C         1.0       0.36904945119293864           0.773928935357431  0.16054768978177378          1.0000   
         C         C         1.0       0.3623572146960061  0.8169552250135944  0.14299465541624082          1.0000   
         C         C         1.0       0.35767080161181036           0.8199058390410785 0.10074566931577333          1.0000   
         C         C         1.0       0.3063011132924549  0.7999228703340893  0.05748923347796718          1.0000   
         C         C         1.0       0.2853539641993511  0.7886981222882787  0.0709158164539449 1.0000   
         C         C         1.0       0.27733983562202236           0.7432133409366791 0.06833065490986977          1.0000   
         C         C         1.0       0.29061539880544424           0.7107454875812041 0.04914157290912722          1.0000   
         C         C         1.0       0.3121339407382619  0.7205692993543382  0.038726060827068566         1.0000   
         C         C         1.0       0.32108278176404625           0.7654647732451352 0.041385666465484784         1.0000   
         H         H         1.0       0.38580884885447936           0.6250675808613759 0.8206476594844705 1.0000   
         H         H         1.0       0.3768038325233651  0.7677013585663155  0.8673170367893007 1.0000   
         H         H         1.0       0.36571754883845803           0.7902306361688382 0.8020482983993342 1.0000   
         H         H         1.0       0.3723935536418385  0.6496166904446505  0.757729655397163  1.0000   
         H         H         1.0       0.41846643884890034           0.76176337441921   0.9163873273415497 1.0000   
         H         H         1.0       0.4568781632881645  0.7796382355573445  0.9032562491310333 1.0000   
         H         H         1.0       0.4662169910634437  0.6432687679790252  0.850367997499162  1.0000   
         H         H         1.0       0.42798356935316195           0.626993861500626  0.855170631640494  1.0000   
         H         H         1.0       0.3478514510153905  0.7051714874556753  0.9068054112832149 1.0000   
         H         H         1.0       0.32983532555070527           0.7319632088318142 0.961871598299399  1.0000   
         H         H         1.0       0.38969504484196527           0.7503922671746389 0.02658729076076707          1.0000   
         H         H         1.0       0.40749718952961905           0.6996588492564809 0.9744154503114705 1.0000   
         H         H         1.0       0.3261679163924192  0.903275738550353   0.9394491903597196 1.0000   
         H         H         1.0       0.317779614708033   0.8300130116417044  0.978583517855892  1.0000   
         H         H         1.0       0.3830641893424288  0.8373526648521675  0.032041657437031544         1.0000   
         H         H         1.0       0.38950264606273916           0.906136501432348  0.9918836412959947 1.0000   
         H         H         1.0       0.3629903544374605  0.705211686101626   0.07961654487733237          1.0000   
         H         H         1.0       0.37447865482717146           0.7018180814493294 0.14815285164231815          1.0000   
         H         H         1.0       0.36460602610082277           0.8499737188147231 0.15919085187916723          1.0000   
         H         H         1.0       0.3521136690365218  0.8538693592772781  0.08736751155915948          1.0000   
         H         H         1.0       0.3126377995352357  0.8338903627313843  0.06193314224279651          1.0000   
         H         H         1.0       0.27564359096102026           0.8145143787785389 0.08328595591181924          1.0000   
         H         H         1.0       0.285673534452171   0.6748302011226576  0.04389361612567835          1.0000   
         H         H         1.0       0.3221368791170894  0.6914720130996032  0.03203655619521003          1.0000   
         C         C         1.0       0.3989013714001032  0.5603754612887563  0.4347668440610367 1.0000   
         C         C         1.0       0.41385162122410984           0.5920120076423966 0.44929783614506397          1.0000   
         C         C         1.0       0.41164599786821293           0.6386957300495495 0.44080668573648946          1.0000   
         C         C         1.0       0.39602488080203757           0.6543099279561744 0.4133045171471811 1.0000   
         C         C         1.0       0.380598333535499   0.6213065382152965  0.39973586824559154          1.0000   
         C         C         1.0       0.3819034813245604  0.5747787311433731  0.41051837278407866          1.0000   
         H         H         1.0       0.4279835455138892  0.5810832470305567  0.4681443305178649 1.0000   
         H         H         1.0       0.4232682768754941  0.6629318494208611  0.45532422325876126          1.0000   
         H         H         1.0       0.36617509692242367           0.6336404145757315 0.38654189039972764          1.0000   
         H         H         1.0       0.3675714363962134  0.5525754009995689  0.4005977995514576 1.0000   
         C         C         1.0       0.3916085227420297  0.6869095363088974  0.3188714784590583 1.0000   
         C         C         1.0       0.38580743413150814           0.7172040790940731 0.35222725408402245          1.0000   
         C         C         1.0       0.37741048193420956           0.7619065750932712 0.34146262673968697          1.0000   
         C         C         1.0       0.3692568012347694  0.7702869867543561  0.302322595508397  1.0000   
         C         C         1.0       0.3710623430536357  0.7374176469622431  0.27272894513209067          1.0000   
         C         C         1.0       0.3841276614221332  0.6972050377770893  0.27944363602301797          1.0000   
         C         C         1.0       0.3967854360662197  0.7074348444056049  0.39821227949704346          1.0000   
         C         C         1.0       0.4210610936469555  0.729152965227601   0.39220125421223384          1.0000   
         C         C         1.0       0.42779587229504995           0.7758675253855303 0.4005027874024676 1.0000   
         C         C         1.0       0.4489906981364052  0.7910109205873401  0.394280130869171  1.0000   
         C         C         1.0       0.4654791607588312  0.7593997218134101  0.37886168937850007          1.0000   
         C         C         1.0       0.45929148086926264           0.714486233765127  0.3695447365342947 1.0000   
         C         C         1.0       0.43771856621465943           0.7002467477831297 0.3754572813099159 1.0000   
         C         C         1.0       0.3635175561776951  0.7379960567290589  0.43401481187169333          1.0000   
         C         C         1.0       0.3511991223942409  0.761787820336029   0.46358179150404794          1.0000   
         C         C         1.0       0.3605349595317666  0.7746997912153082  0.5003727338265808 1.0000   
         C         C         1.0       0.3831429544124778  0.7638441571137424  0.5054553678688959 1.0000   
         C         C         1.0       0.39551050524290243           0.7471326908427293 0.4727313592180137 1.0000   
         C         C         1.0       0.38532564886874654           0.7317743140261316 0.43616642775526526          1.0000   
         C         C         1.0       0.34848476115755395           0.8039553229540061 0.5348887838621781 1.0000   
         C         C         1.0       0.35688434039254174           0.9437366011939222 0.47953135340901315          1.0000   
         C         C         1.0       0.3369657457673794  0.9214750727083821  0.4773072057104058 1.0000   
         C         C         1.0       0.334962676472504   0.876562593074816   0.4933396401817642 1.0000   
         C         C         1.0       0.35191443893475477           0.855639573709425  0.5171050586912976 1.0000   
         C         C         1.0       0.3720585568548815  0.8789046468701525  0.518233400665425  1.0000   
         C         C         1.0       0.3746815630669854  0.9220571174855863  0.5011294729864612 1.0000   
         C         C         1.0       0.3579401767512639  0.7928788325331971  0.5805283279833573 1.0000   
         C         C         1.0       0.3577321026044542  0.7463296435239637  0.5945159908465049 1.0000   
         C         C         1.0       0.364591698632674   0.7365117146964857  0.6335411076672497 1.0000   
         C         C         1.0       0.3740233892137619  0.7701026410554741  0.6603073489185042 1.0000   
         C         C         1.0       0.3749371554278353  0.815909481526929   0.644654880151222  1.0000   
         C         C         1.0       0.36543440537920346           0.8280826607130851 0.6067254851273992 1.0000   
         C         C         1.0       0.3102144324076235  0.8196073979701469  0.5648923588725107 1.0000   
         C         C         1.0       0.28802254201798644           0.8101025628454905 0.5714046403317474 1.0000   
         C         C         1.0       0.2788492517396649  0.7687298230841917  0.5575537478819896 1.0000   
         C         C         1.0       0.29200523677321616           0.7346650517059763 0.5388199078703034 1.0000   
         C         C         1.0       0.3144626299105202  0.7450147314166787  0.5310438185763753 1.0000   
         C         C         1.0       0.3232077388982233  0.7883838613694699  0.541962889097991  1.0000   
         H         H         1.0       0.4004357000479054  0.6578759195125408  0.3257995506729332 1.0000   
         H         H         1.0       0.37425770605793907           0.7882183370302869 0.36542759903163335          1.0000   
         H         H         1.0       0.361554949913518   0.8029109402417599  0.29546196776892136          1.0000   
         H         H         1.0       0.38476444274905397           0.6668171899688927 0.2582762576304723 1.0000   
         H         H         1.0       0.41580927340862106           0.8013375423756514 0.4067986437736158 1.0000   
         H         H         1.0       0.45253023043268464           0.8252288681084293 0.400684529405603  1.0000   
         H         H         1.0       0.4681855282265544  0.6877870715340406  0.3535163024008333 1.0000   
         H         H         1.0       0.43383907849951203           0.6633789894028855 0.36803583366694964          1.0000   
         H         H         1.0       0.35399104941469683           0.7268404906577473 0.4061998288316405 1.0000   
         H         H         1.0       0.3339730250661641  0.7693204141036373  0.4586155936914643 1.0000   
         H         H         1.0       0.3924358650890776  0.7753788667637649  0.5319581692567306 1.0000   
         H         H         1.0       0.4120190802244806  0.7400872059175424  0.4767914980342414 1.0000   
         H         H         1.0       0.32406287323927213           0.9365528690128548 0.4584347177469999 1.0000   
         H         H         1.0       0.31972470677812964           0.858604134944878  0.48989079428906973          1.0000   
         H         H         1.0       0.3857887861994136  0.8601008343386383  0.5290099892725533 1.0000   
         H         H         1.0       0.39005462563178245           0.942661431588868  0.5066916599344523 1.0000   
         H         H         1.0       0.35200310698326864           0.7157691770615817 0.5741140589854179 1.0000   
         H         H         1.0       0.36475251660250646           0.7001066689359148 0.6429821520636749 1.0000   
         H         H         1.0       0.3807857237523838  0.844173435368914   0.6653395895960956 1.0000   
         H         H         1.0       0.36605359743273125           0.8653721824215648 0.5977402566094814 1.0000   
         H         H         1.0       0.31709948296023766           0.8526800929148409 0.5735738711682141 1.0000   
         H         H         1.0       0.278338534688436   0.8374330798361731  0.5837676253543596 1.0000   
         H         H         1.0       0.2856367306892156  0.7032350728543314  0.5253076326292097 1.0000   
         H         H         1.0       0.323677584680289   0.7196967160064658  0.5171207432839141 1.0000   
         C         C         1.0       0.36238550078070997           0.7392880005736299 0.7269701065658368 1.0000   
         C         C         1.0       0.3817601180266021  0.7599274833325588  0.7027122976571976 1.0000   
         H         H         1.0       0.35244335069011556           0.7108370220548778 0.7102953274967373 1.0000   
         H         H         1.0       0.34894953651298294           0.7655585439217771 0.7277673677606471 1.0000   
         H         H         1.0       0.39511667936545014           0.7355050059575549 0.6987750322544825 1.0000   
         H         H         1.0       0.3894949572735967  0.7871319650985368  0.7206636833187778 1.0000   
         C         C         1.0       0.3593054939893601  0.7457332350240491  0.23214914245413026          1.0000   
         C         C         1.0       0.3754407440565818  0.772424233002515   0.20496110493908834          1.0000   
         H         H         1.0       0.3446083259673658  0.7676759568467395  0.23760677116728188          1.0000   
         H         H         1.0       0.35345844714624053           0.7138013295014517 0.21816816556056043          1.0000   
         H         H         1.0       0.39172471582817375           0.7528758106028113 0.2064270498397166 1.0000   
         H         H         1.0       0.3791223504971524  0.8064107197575224  0.2188685784079975 1.0000   
         C         C         1.0       0.2468556922064384  0.7628523828044035  0.6097459309299809 1.0000   
         C         C         1.0       0.254321909228268   0.7592521474624242  0.5653575107507037 1.0000   
         H         H         1.0       0.2559118086137055  0.791786216650561   0.6247986905136195 1.0000   
         H         H         1.0       0.25294046383457586           0.7292484215454746 0.6233588258905051 1.0000   
         H         H         1.0       0.250791643351908   0.7232533525944955  0.5561568565421164 1.0000   
         H         H         1.0       0.2442546957513058  0.7805449760689515  0.5433678980013777 1.0000   
         C         C         1.0       0.1159050072814715  0.7403162921364693  0.9624120790338958 1.0000   
         C         C         1.0       0.13537383027663885           0.7297202486478491 0.9333269924797473 1.0000   
         H         H         1.0       0.10472906443634988           0.70911807888108   0.9659376879515333 1.0000   
         H         H         1.0       0.1066390764311705  0.7726968717658088  0.9526537949713139 1.0000   
         H         H         1.0       0.147112216152393   0.7027390197649238  0.9448657274760656 1.0000   
         H         H         1.0       0.1451098835384445  0.7645517886141474  0.9308947515409705 1.0000   
         C         C         1.0       0.11779081531473756           0.7556056542812062 0.46350230487453126          1.0000   
         C         C         1.0       0.137655974592501   0.7427903152485582  0.43150656174097285          1.0000   
         H         H         1.0       0.1034546586847812  0.7293027561880018  0.4620795227664748 1.0000   
         H         H         1.0       0.10895885521692739           0.7879995942865008 0.4542824022575877 1.0000   
         H         H         1.0       0.14873741512913793           0.7154966507633472 0.44236568702899437          1.0000   
         H         H         1.0       0.14827362361347937           0.774750637986251  0.4270158915313269 1.0000   
         C         C         1.0       0.24501960585667015           0.7338786620137362 0.11832723285560778          1.0000   
         C         C         1.0       0.25301449368544465           0.7352341948597364 0.07323798161897158          1.0000   
         H         H         1.0       0.2551581297484101  0.7593737227544552  0.1357927803041474 1.0000   
         H         H         1.0       0.2468061263869657  0.6973256021661373  0.12972714298441224          1.0000   
         H         H         1.0       0.24711538281167408           0.7044237757015837 0.05596084951306342          1.0000   
         H         H         1.0       0.2452542531937532  0.766342607506637   0.05634037477689189          1.0000   
         C         C         1.0       0.989487011117904   0.7344455985668497  0.7931788136945478 1.0000   
         C         C         1.0       0.005629065284141587          0.7297440475302659 0.755030420073507  1.0000   
         H         H         1.0       0.9952976197425643  0.7612406464177347  0.8136243273800758 1.0000   
         H         H         1.0       0.9918357570085112  0.7040214635063343  0.8132606215550692 1.0000   
         H         H         1.0       0.004345453037737271          0.7616052019027731 0.7338752545818389 1.0000   
         H         H         1.0       0.9994168251794868  0.6988105455147315  0.734798284262947  1.0000   
         C         C         1.0       0.005086330043405682          0.7455049075433657 0.27414204596651287          1.0000   
         C         C         1.0       0.9897744494663093  0.7307681919074248  0.3089321420978557 1.0000   
         H         H         1.0       0.002821436474889083          0.7825142042411405 0.26202649572552345          1.0000   
         H         H         1.0       0.0002488255892996172         0.7242984703911508 0.24563664934259793          1.0000   
         H         H         1.0       0.9955136384879907  0.7525966499239752  0.3345464338847025 1.0000   
         H         H         1.0       0.9926196981310149  0.6946420328579755  0.31374083574676664          1.0000   
         C         C         1.0       0.8772332255408916  0.7297663915604268  0.9578653545935394 1.0000   
         C         C         1.0       0.8627201599989582  0.7503818592698251  0.9257487707184158 1.0000   
         H         H         1.0       0.8905333736234741  0.7577005941774186  0.9618020930644041 1.0000   
         H         H         1.0       0.8895141652736126  0.7026331298113228  0.9482701595842726 1.0000   
         H         H         1.0       0.8568229131614171  0.7855660055483525  0.934679421904873  1.0000   
         H         H         1.0       0.8475916668902179  0.726998466170235   0.9214048233515701 1.0000   
         C         C         1.0       0.861757659893072   0.7159262875710437  0.4274497439821149 1.0000   
         C         C         1.0       0.8804244771541061  0.6949203351787966  0.4567284806990386 1.0000   
         H         H         1.0       0.8480818442723994  0.6931478773469729  0.4196975666836282 1.0000   
         H         H         1.0       0.854591494238609   0.7482614794793057  0.44325275346422405          1.0000   
         H         H         1.0       0.8949625091930729  0.7164830972829886  0.46294126933135293          1.0000   
         H         H         1.0       0.8855261954212844  0.6603269232710807  0.4452571119322991 1.0000   
         C         C         1.0       0.5010546642677628  0.7753060110609185  0.41909852471811243          1.0000   
         C         C         1.0       0.4899028077830492  0.7732446943396328  0.3765176364472673 1.0000   
         H         H         1.0       0.4992520952453143  0.7394079458485499  0.43536141593282013          1.0000   
         H         H         1.0       0.49380955220177764           0.801352734753267  0.4408764231216855 1.0000   
         H         H         1.0       0.4984203420432959  0.7470250128347922  0.3584790322725474 1.0000   
         H         H         1.0       0.49271240868313754           0.8068196742804901 0.3567836012197256 1.0000   
         C         C         1.0       0.7419484956105854  0.7513516906792898  0.5791007532042479 1.0000   
         C         C         1.0       0.75468146852781    0.7532417799880207  0.6213479575888038 1.0000   
         H         H         1.0       0.7469981591111184  0.7841073676630448  0.5627692578856403 1.0000   
         H         H         1.0       0.7479909516703483  0.7250471360976423  0.5592324206775972 1.0000   
         H         H         1.0       0.7447043294736339  0.7370983806640898  0.6488858979534392 1.0000   
         H         H         1.0       0.7572210334293882  0.7903250238727061  0.6300219257562578 1.0000   
         C         C         1.0       0.5013223969219252  0.7037649484066275  0.9109084384561729 1.0000   
         C         C         1.0       0.4886036916598055  0.7201132683456305  0.8717665672307443 1.0000   
         H         H         1.0       0.49874788826221317           0.6657931306515579 0.9165000840771659 1.0000   
         H         H         1.0       0.492907585689614   0.7180378352857619  0.9396909846663328 1.0000   
         H         H         1.0       0.4932472248518326  0.6982773982810241  0.8435140404883082 1.0000   
         H         H         1.0       0.49366851448291554           0.7577862670403335 0.8630207266690433 1.0000   
         C         C         1.0       0.6251310599337395  0.7651272708408264  0.7622452298533411 1.0000   
         C         C         1.0       0.6078084999903717  0.7477054553615655  0.7314356217811696 1.0000   
         H         H         1.0       0.6397517173032398  0.739793398241322   0.7615544197464967 1.0000   
         H         H         1.0       0.6314739113231097  0.8009020909382603  0.7511103354884368 1.0000   
         H         H         1.0       0.5945038230384425  0.7741305886095947  0.727834550261984  1.0000   
         H         H         1.0       0.6019241081080177  0.7152012597803277  0.744181615872554  1.0000   
         C         C         1.0       0.6323238565368755  0.7495233984116839  0.2514730126319742 1.0000   
         C         C         1.0       0.6147800258130529  0.716723433697698   0.22994697550975793          1.0000   
         H         H         1.0       0.6344262893550522  0.783451783712248   0.23283059740623122          1.0000   
         H         H         1.0       0.6483554881200119  0.7323385595750861  0.2551189047448329 1.0000   
         H         H         1.0       0.6112239915526988  0.6857250207588788  0.24931541586414757          1.0000   
         H         H         1.0       0.5984813227095905  0.7294867127829413  0.2266175356553345 1.0000   
         C         C         1.0       0.7416496757343078  0.7131598513632305  0.07490909850703062          1.0000   
         C         C         1.0       0.7510649646352792  0.7247072313197616  0.11892447579309738          1.0000   
         H         H         1.0       0.7472871079777287  0.7415340762827981  0.053431345252824364         1.0000   
         H         H         1.0       0.7494849366434235  0.6805526815342372  0.06599950988010055          1.0000   
         H         H         1.0       0.7451496261927654  0.6973036087013489  0.1398338303729187 1.0000   
         H         H         1.0       0.7447171791442794  0.7594219873587029  0.13032405080643847          1.0000   
         C         C         1.0       0.37256000336459016           0.5020702860735539 0.9726538561227327 1.0000   
         C         C         1.0       0.3708179122075622  0.4569616513627648  0.9461038960738596 1.0000   
         H         H         1.0       0.3846855023830484  0.4995024356288123  0.9983635050750852 1.0000   
         H         H         1.0       0.3579638739380117  0.5105111279127212  0.9898514590595433 1.0000   
         H         H         1.0       0.3543872169659264  0.45114753500998295           0.9354784223758855 1.0000   
         H         H         1.0       0.3815605951372656  0.45767598158854333           0.9178444052550494 1.0000   
         C         C         1.0       0.37200507588091136           0.9934338899666207 0.9546157954547163 1.0000   
         C         C         1.0       0.3633643139204813  0.9495478808632121  0.9320899315664515 1.0000   
         H         H         1.0       0.38915495405509776           0.9938962761538944 0.9577113946520911 1.0000   
         H         H         1.0       0.364484024002975   0.9898213575269389  0.9862951231077031 1.0000   
         H         H         1.0       0.3741824264702603  0.9391391948777472  0.9047881449657301 1.0000   
         H         H         1.0       0.3476071000862571  0.9599487292297035  0.917557676801071  1.0000   
         C         C         1.0       0.40006882853827314           0.5020983175569813 0.49799110283680353          1.0000   
         C         C         1.0       0.3986266378463979  0.5113856030628429  0.4510961566630476 1.0000   
         H         H         1.0       0.38791804567211957           0.5228163414025521 0.5174859274700481 1.0000   
         H         H         1.0       0.41688674249647223           0.5176982030577741 0.5060799158122214 1.0000   
         H         H         1.0       0.3824891517037351  0.4953025822585321  0.44249799643831816          1.0000   
         H         H         1.0       0.4118284722731839  0.4902713247756287  0.4335564109906952 1.0000   
         C         C         1.0       0.3620816934985087  0.9846971739511281  0.45162970891664317          1.0000   
         C         C         1.0       0.36713363434261514           0.030883373890588164         0.47724680239982675          1.0000   
         H         H         1.0       0.3752884341576862  0.9771912396913855  0.43024886465348144          1.0000   
         H         H         1.0       0.34910783494396164           0.9918096351138456 0.43022278346172094          1.0000   
         H         H         1.0       0.38425300678656754           0.03091899958486244          0.4896835115673569 1.0000   
         H         H         1.0       0.35691976956023347           0.03060991052380424          0.5051899435533926 1.0000   
         C         C         1.0       0.38024681399450694           0.22883447928808742          0.7018302049097727 1.0000   
         C         C         1.0       0.3573079286613186  0.23316608667144675           0.7190037393053499 1.0000   
         H         H         1.0       0.3929788667540136  0.24656749492377947           0.7220262098109106 1.0000   
         H         H         1.0       0.3837137462274973  0.19165805910269307           0.7032734895656673 1.0000   
         H         H         1.0       0.345479512521868   0.21750854787841378           0.6972318464607822 1.0000   
         H         H         1.0       0.35195772943877934           0.26930651533031363          0.7128040094408993 1.0000   
         C         C         1.0       0.3803740853314583  0.2379958479706719  0.2274483808500039 1.0000   
         C         C         1.0       0.36137470584885256           0.2504274155857033 0.19673555478272725          1.0000   
         H         H         1.0       0.38949997335310077           0.2090588427260679 0.21626780735564777          1.0000   
         H         H         1.0       0.3937004082194352  0.26395427739127186           0.22603222691822691          1.0000   
         H         H         1.0       0.35208085065541894           0.28316443450732026          0.20491843147545055          1.0000   
         H         H         1.0       0.3482538996707781  0.22243103865599848           0.1997634363403498 1.0000   
         C         C         1.0       0.11307238403082207           0.44926339933118276          0.7390686095405544 1.0000   
         C         C         1.0       0.1137861864574906  0.48784142434206473           0.7070628855224815 1.0000   
         H         H         1.0       0.09994627278600854           0.45625662104030545          0.7620671466535036 1.0000   
         H         H         1.0       0.12910619678721907           0.44955721868379206          0.7590580172230673 1.0000   
         H         H         1.0       0.09994876807749854           0.47954547028710426          0.6843490066054222 1.0000   
         H         H         1.0       0.13054827648839834           0.48966669131167934          0.6911709429203617 1.0000   
         C         C         1.0       0.12338790371379127           0.9654098726578552 0.7000730456474012 1.0000   
         C         C         1.0       0.12557489135331915           0.9724491153803724 0.7472441938493064 1.0000   
         H         H         1.0       0.13322829305695097           0.9895131230918124 0.6811384981485753 1.0000   
         H         H         1.0       0.10656258373129492           0.9725524639158482 0.6914789002570835 1.0000   
         H         H         1.0       0.14115890768154374           0.9564031507001435 0.757821875165447  1.0000   
         H         H         1.0       0.11186313510156515           0.9572960058133965 0.7643785731481829 1.0000   
         C         C         1.0       0.23456259551779765           0.204595242679814  0.8475291160150691 1.0000   
         C         C         1.0       0.2428574700857458  0.1982054786290536  0.8950094486978439 1.0000   
         H         H         1.0       0.2455063866805386  0.18432880440461388           0.8256301550873854 1.0000   
         H         H         1.0       0.23793999502587515           0.24228190723568194          0.8388807189059441 1.0000   
         H         H         1.0       0.23669748066495275           0.22710923588018891          0.9152183942119164 1.0000   
         H         H         1.0       0.23545059270193675           0.16494263248754812          0.9056656853755415 1.0000   
         C         C         1.0       0.1154889209929277  0.47813935459694934           0.2326671331687152 1.0000   
         C         C         1.0       0.11339942460624736           0.514890869358222  0.197860118892951  1.0000   
         H         H         1.0       0.10507433077306615           0.4859849224069559 0.25917945135538567          1.0000   
         H         H         1.0       0.1321388757368795  0.4734885668713207  0.24656009037863988          1.0000   
         H         H         1.0       0.10092335932482588           0.5029001877575916 0.1764455219407293 1.0000   
         H         H         1.0       0.1283469161047191  0.5124176214867945  0.17724391416352472          1.0000   
         C         C         1.0       0.1460798300442469  0.9961891122073826  0.24117894732069786          1.0000   
         C         C         1.0       0.13669155887249065           0.9816058449407555 0.19733393663566196          1.0000   
         H         H         1.0       0.16262759026376963           0.9833987269099125 0.2396305809350484 1.0000   
         H         H         1.0       0.1371489317439193  0.97451362260204    0.26410099501246426          1.0000   
         H         H         1.0       0.14780133360377626           0.0015250940427453225        0.175624427342723  1.0000   
         H         H         1.0       0.11956348260064618           0.9937410401016283 0.19513522686414567          1.0000   
         C         C         1.0       0.11317124686291542           0.19485429794225648          0.47047518660645027          1.0000   
         C         C         1.0       0.12966799845560215           0.2138044178828676 0.5024949142882817 1.0000   
         H         H         1.0       0.09857740497405905           0.2197275327669427 0.4676190302092097 1.0000   
         H         H         1.0       0.10462457161215354           0.16057341963818259          0.47643982127810663          1.0000   
         H         H         1.0       0.13756334342487828           0.2480441341082841 0.48891422528470624          1.0000   
         H         H         1.0       0.14487944321167373           0.19158165632464058          0.505463048105754  1.0000   
         C         C         1.0       0.1305615473063389  0.23143881656308296           0.008611004757703045         1.0000   
         C         C         1.0       0.11156922875203543           0.21940732422871206          0.9793378863392936 1.0000   
         H         H         1.0       0.14055235000427638           0.25977985264971304          0.9942530224740027 1.0000   
         H         H         1.0       0.14405840156806038           0.20482544831013866          0.009850984447129984         1.0000   
         H         H         1.0       0.10169999783583618           0.1927400666669787 0.9915577605488363 1.0000   
         H         H         1.0       0.10076568679712818           0.2523481486083042 0.9794246011252706 1.0000   
         C         C         1.0       0.24493474835965012           0.24697412678202577          0.32589234992396215          1.0000   
         C         C         1.0       0.2527792841136568  0.25483153870350106           0.37287328222072236          1.0000   
         H         H         1.0       0.25485946429138184           0.21476896255619593          0.31255944903097   1.0000   
         H         H         1.0       0.24821797627907258           0.27455295916868344          0.3027945079175657 1.0000   
         H         H         1.0       0.2478849065879042  0.2893186796139609  0.38446391299723753          1.0000   
         H         H         1.0       0.24296495950715402           0.22883650574253214          0.3907310598071069 1.0000   
         C         C         1.0       0.8523016393998054  0.47076014539179095           0.7322977236496493 1.0000   
         C         C         1.0       0.8521228873085123  0.4702335022664963  0.6836869556820575 1.0000   
         H         H         1.0       0.839315174772947   0.49632094888318556           0.7468747891123462 1.0000   
         H         H         1.0       0.869140647405632   0.4843924075336696  0.7423324795351904 1.0000   
         H         H         1.0       0.8388903047664478  0.44730354886658286           0.6704420997801269 1.0000   
         H         H         1.0       0.8679619476898988  0.4545802576631735  0.6733295561109888 1.0000   
         C         C         1.0       0.8676419229985504  0.9919595447622145  0.7070750823188504 1.0000   
         C         C         1.0       0.8827714584912921  0.9576291286386083  0.6843658912680473 1.0000   
         H         H         1.0       0.8708436449157813  0.9856046758751135  0.7391286489916252 1.0000   
         H         H         1.0       0.8495162568030139  0.9844221196763149  0.702447224280635  1.0000   
         H         H         1.0       0.8987260434208485  0.9753026508102763  0.6884295117280868 1.0000   
         H         H         1.0       0.8803999505919103  0.9582255458190252  0.6512625166362869 1.0000   
         C         C         1.0       0.984448885384066   0.21200225192134864           0.6660294536365297 1.0000   
         C         C         1.0       0.0005542981300443728         0.21088129370253653          0.6283074457817841 1.0000   
         H         H         1.0       0.9866872038674844  0.24567039992899195           0.6827321716788858 1.0000   
         H         H         1.0       0.9896995489846644  0.18396566316635288           0.6881818159529741 1.0000   
         H         H         1.0       0.9931082129683163  0.2390097759610237  0.6054066384704618 1.0000   
         H         H         1.0       0.9984953250491616  0.17813050138017167           0.6101524605025369 1.0000   
         C         C         1.0       0.8743817189465695  0.493322259418042   0.23205350887120466          1.0000   
         C         C         1.0       0.8751075482519026  0.5024235674867605  0.18610872719186744          1.0000   
         H         H         1.0       0.8617765062873641  0.5141348057792118  0.25041506488950954          1.0000   
         H         H         1.0       0.8908775589032338  0.5058750891831503  0.24529212233747053          1.0000   
         H         H         1.0       0.8624128372036467  0.48209472002924536           0.17013665622714325          1.0000   
         H         H         1.0       0.891273864351508   0.4883998277261031  0.17240098982811813          1.0000   
         C         C         1.0       0.8860794948164443  0.009369142367052306         0.24012407128431082          1.0000   
         C         C         1.0       0.8836576570837968  0.9688960775441106  0.2096499842841437 1.0000   
         H         H         1.0       0.9002826326178802  0.0007896174052570704        0.26339740455275557          1.0000   
         H         H         1.0       0.8718384535578081  0.00528080333695936           0.26255747494836573          1.0000   
         H         H         1.0       0.8924120457228558  0.9758015812915048  0.17822481721706881          1.0000   
         H         H         1.0       0.8666357363377075  0.9721292616699067  0.19830724194901733          1.0000   
         C         C         1.0       0.003472617943553338          0.2423153219745718 0.16749110646288257          1.0000   
         C         C         1.0       0.9917075069046412  0.24207690464388346           0.1255720736503097 1.0000   
         H         H         1.0       8.18172352246016e-06          0.20829325517499978          0.17965369297881836          1.0000   
         H         H         1.0       0.9952122148747988  0.2660027260168119  0.19144914577170485          1.0000   
         H         H         1.0       0.9995729736288524  0.21495776154527618           0.10546650861591544          1.0000   
         H         H         1.0       0.9922739423118747  0.2748253209031954  0.10592401751170036          1.0000   
         C         C         1.0       0.8842381402084561  0.26051125893350036           0.4689112961689842 1.0000   
         C         C         1.0       0.8634380059277449  0.24879080926383149           0.49455108798582775          1.0000   
         H         H         1.0       0.8959917860914655  0.22863893984221176           0.46850917226374483          1.0000   
         H         H         1.0       0.8935026129025714  0.2893536042546847  0.4855485776219713 1.0000   
         H         H         1.0       0.8529941967509322  0.22076018837718991           0.4786724939373486 1.0000   
         H         H         1.0       0.8529270375151387  0.27934019543896565           0.4960235616866259 1.0000   
         C         C         1.0       0.8777759499010326  0.2543384133878436  0.9717801906286438 1.0000   
         C         C         1.0       0.858176654650416   0.23534418883430908           0.9987120967978869 1.0000   
         H         H         1.0       0.8850917880144132  0.2844049286167407  0.9877245007916045 1.0000   
         H         H         1.0       0.8913772991043977  0.23038792902110378           0.9734407806099604 1.0000   
         H         H         1.0       0.8517492602076581  0.20309699807784956           0.9863205648722884 1.0000   
         H         H         1.0       0.8441668293107316  0.2596631797594319  0.00013235213490370157       1.0000   
         C         C         1.0       0.6293473128523729  0.4490281830387795  0.954012078848127  1.0000   
         C         C         1.0       0.6323632623315665  0.4600569574266972  0.00038787899658787595       1.0000   
         H         H         1.0       0.6410765941991047  0.47008098525403724           0.9384416477006433 1.0000   
         H         H         1.0       0.6149459842434447  0.4622713138445804  0.9396670825098751 1.0000   
         H         H         1.0       0.6467574153363661  0.44424818878794703           0.013592330231445106         1.0000   
         H         H         1.0       0.6185507688024883  0.44153519430971333           0.017867025058296848         1.0000   
         C         C         1.0       0.610458597227596   0.9316299508242587  0.03324487124444753          1.0000   
         C         C         1.0       0.6149870220889747  0.9750231263179023  0.002556125754219929         1.0000   
         H         H         1.0       0.5946552710782265  0.9373329044499495  0.04915893253576998          1.0000   
         H         H         1.0       0.623674029735476   0.9304736582124643  0.057352204560583875         1.0000   
         H         H         1.0       0.6036132137555381  0.9653041853882527  0.9760558511271465 1.0000   
         H         H         1.0       0.6327418892135059  0.9776366103009545  0.9940190827861735 1.0000   
         C         C         1.0       0.489463626329386   0.22266147654566176           0.03429949384433894          1.0000   
         C         C         1.0       0.5043629978624785  0.24127215815876774           0.06894842784428894          1.0000   
         H         H         1.0       0.492860804751085   0.1845365623692693  0.02872460643217584          1.0000   
         H         H         1.0       0.49591828969160157           0.24041813357672892          0.007170331889879099         1.0000   
         H         H         1.0       0.49887097964036814           0.23085670218508883          0.10016509365744741          1.0000   
         H         H         1.0       0.5019047409921751  0.2788485564240198  0.07445535647637902          1.0000   
         C         C         1.0       0.7403949517207349  0.20382147482654692           0.8722045218489155 1.0000   
         C         C         1.0       0.7487542583118906  0.21483885500024705           0.8282854816714262 1.0000   
         H         H         1.0       0.7495430274660023  0.2269826822322082  0.8941626555781451 1.0000   
         H         H         1.0       0.7442454012258631  0.1691493647743712  0.8823513335782892 1.0000   
         H         H         1.0       0.7465919384531561  0.18433874963457117           0.8084835962922056 1.0000   
         H         H         1.0       0.737999398958025   0.24387012749392198           0.8159490901505085 1.0000   
         C         C         1.0       0.640850776322783   0.5026301031089478  0.4549172085094054 1.0000   
         C         C         1.0       0.6339585176384941  0.5072661248294378  0.5019734883260758 1.0000   
         H         H         1.0       0.653870211934572   0.5264327291660541  0.4441203900921344 1.0000   
         H         H         1.0       0.6260131852514854  0.5138429905685338  0.4386664915191911 1.0000   
         H         H         1.0       0.6414512308872153  0.47794949920959384           0.5231185440039273 1.0000   
         H         H         1.0       0.6158425251840964  0.5037089139259922  0.5003886031818287 1.0000   
         C         C         1.0       0.6233951789833048  0.01356448914363477           0.4489653850669487 1.0000   
         C         C         1.0       0.622071921307147   0.9790222263487928  0.48602172305415653          1.0000   
         H         H         1.0       0.6111360724550186  0.005063057829269413         0.42434658032944433          1.0000   
         H         H         1.0       0.638761234604286   0.009685747060023647         0.43120126178981527          1.0000   
         H         H         1.0       0.6128953454549553  0.993059340077144   0.5116633506553859 1.0000   
         H         H         1.0       0.6383074953905489  0.9736469456575508  0.49948651824910784          1.0000   
         C         C         1.0       0.5101242791025146  0.2335740657731642  0.5232071122586788 1.0000   
         C         C         1.0       0.4941957526821507  0.2256848591170393  0.5596824429547063 1.0000   
         H         H         1.0       0.5080778620605334  0.2698120697697243  0.5143618039541807 1.0000   
         H         H         1.0       0.5031299069861298  0.21272298717863453           0.49655121567783794          1.0000   
         H         H         1.0       0.5024561808767738  0.2440708979825654  0.5850147254025732 1.0000   
         H         H         1.0       0.49148945241577024           0.1884013635805437 0.5678949758001852 1.0000   
         C         C         1.0       0.615634387410517   0.2163836943401275  0.7306532955154187 1.0000   
         C         C         1.0       0.6338252176382857  0.19735629888145215           0.7017836906573865 1.0000   
         H         H         1.0       0.6000578724262227  0.19562267359734295           0.7300169545676162 1.0000   
         H         H         1.0       0.6088991870440752  0.2519931753821953  0.7179029485420161 1.0000   
         H         H         1.0       0.6396714751671362  0.16567142340218033           0.7138770838599983 1.0000   
         H         H         1.0       0.6502784354253754  0.21796675103793448           0.7018260557078768 1.0000   
         C         C         1.0       0.6253003537212967  0.2587423423599977  0.23471703495133145          1.0000   
         C         C         1.0       0.6393879355410343  0.22950925273374512           0.2053954803723565 1.0000   
         H         H         1.0       0.6091952880264919  0.24099914680237036           0.24558337032096403          1.0000   
         H         H         1.0       0.6203485690003843  0.2927248323071226  0.21860579617577672          1.0000   
         H         H         1.0       0.6440944065002066  0.19657237068784986           0.22092810049533818          1.0000   
         H         H         1.0       0.6556832035781512  0.2503188865375737  0.1992216502236961 1.0000   
         C         C         1.0       0.7535479475599117  0.2778193209310178  0.3723930064008255 1.0000   
         C         C         1.0       0.7613547140076815  0.2777118233706487  0.326866776370713  1.0000   
         H         H         1.0       0.761226168350003   0.24630483652739657           0.388728407094678  1.0000   
         H         H         1.0       0.7628814509261029  0.30449091576162735           0.390439785108424  1.0000   
         H         H         1.0       0.7524938324519141  0.30403385853007164           0.30923413887775936          1.0000   
         H         H         1.0       0.757133741492843   0.24387600366643186           0.3103159672210836 1.0000

