data_0
_chemical_formula_structural 
                                        C6H4C38H24C6H4C38H24C6H4C38H24C6H4C38H24C6H4C38H24C6H4C38H24C6H4C38H24C6H4C38H24C6H4C38H24C6H4C38H24C6H4C38H24C6H4C38H24C6H4C38H24C6H4C38H24C6H4C38H24C6H4C38H24C2H4C2H4C2H4C2H4C2H4C2H4C2H4C2H4C2H4C2H4C2H4C2H4C2H4C2H4C2H4C2H4C2H4C2H4C2H4C2H4C2H4C2H4C2H4C2H4C2H4C2H4C2H4C2H4C2H4C2H4C2H4C2H4C2H4C2H4C2H4C2H4C2H4C2H4C2H4C2H4C2H4C2H4C2H4C2H4C2H4C2H4C2H4C2H4
_chemical_formula_sum                   'C800 H640'
_cell_length_a                          44.7252221564036
_cell_length_b                          21.049947958646374
_cell_length_c                          23.882040466446938
_cell_angle_alpha                       89.96670190449763
_cell_angle_beta                        90.28188343128018
_cell_angle_gamma                       90.25512766357504
_space_group_name_H-M_alt               'P 1'
_space_group_IT_number                  1
loop_
  _space_group_symop_operation_xyz
         'x, y, z' 
loop_
  _atom_site_type_symbol
  _atom_site_label
  _atom_site_symmetry_multiplicity
  _atom_site_fract_x
  _atom_site_fract_y
  _atom_site_fract_z
  _atom_site_occupancy
         C         C         1.0       0.7364037231594746  0.3685872954897718  0.6726452409049211 1.0000   
         C         C         1.0       0.7149651702835612  0.3836694928778467  0.6339911971029708 1.0000   
         C         C         1.0       0.7152046811905582  0.44075412893051574           0.6065677080402573 1.0000   
         C         C         1.0       0.7372989634774285  0.48485666160478996           0.6167817237701468 1.0000   
         C         C         1.0       0.7593776617680719  0.4697144931826506  0.658979141793068  1.0000   
         C         C         1.0       0.7578801464779588  0.41186557413101155           0.6887213721732158 1.0000   
         H         H         1.0       0.6958941168709794  0.3522357688447132  0.6221969098593041 1.0000   
         H         H         1.0       0.6991338128279218  0.44839303630732913           0.5714850477913646 1.0000   
         H         H         1.0       0.7794557000136172  0.5005590950592159  0.6638325149923682 1.0000   
         H         H         1.0       0.7706578723577432  0.4074338315602763  0.7252641239635849 1.0000   
         C         C         1.0       0.7548845289043038  0.6221412145268399  0.6562791791665085 1.0000   
         C         C         1.0       0.760846497324054   0.6012271714903265  0.6028214502884895 1.0000   
         C         C         1.0       0.7828188004859605  0.6325668568469487  0.5740789846105373 1.0000   
         C         C         1.0       0.7939620489141498  0.6867178384106876  0.5913703622548564 1.0000   
         C         C         1.0       0.7848116389547418  0.7119674315125565  0.6420680349518804 1.0000   
         C         C         1.0       0.7651109292343424  0.6798801100194831  0.6738042727672663 1.0000   
         C         C         1.0       0.741026138281685   0.5466896967155909  0.5773701017153644 1.0000   
         C         C         1.0       0.7112154263132431  0.5855952857825123  0.5629611765342872 1.0000   
         C         C         1.0       0.7113903538458698  0.6355457304483264  0.5241594137793394 1.0000   
         C         C         1.0       0.6881123070361342  0.6779692042285561  0.5221123380895769 1.0000   
         C         C         1.0       0.663920902851007   0.6716850976151346  0.5571263947893383 1.0000   
         C         C         1.0       0.6628432501964489  0.6210217697343705  0.5969690877381733 1.0000   
         C         C         1.0       0.6868902380213627  0.5829224110861203  0.6001202284616963 1.0000   
         C         C         1.0       0.7864208255629009  0.48861866355883854           0.5229440896978411 1.0000   
         C         C         1.0       0.7984338990029427  0.4636540782011252  0.47589403878380376          1.0000   
         C         C         1.0       0.7843829689351174  0.4662482822108615  0.4249002655751593 1.0000   
         C         C         1.0       0.7567270310368924  0.49442100180055826           0.4232244141868437 1.0000   
         C         C         1.0       0.7428921773835274  0.5162873085322659  0.4701410618237467 1.0000   
         C         C         1.0       0.7573767097884072  0.5150610320869409  0.5223344501535935 1.0000   
         C         C         1.0       0.8007079892740326  0.4550011349688746  0.36563104254721257          1.0000   
         C         C         1.0       0.8403259274360577  0.6425953600258064  0.35905071788059   1.0000   
         C         C         1.0       0.8531641858754888  0.5954421590159092  0.39195145703030376          1.0000   
         C         C         1.0       0.8418181247583943  0.5329909895131978  0.3900086766291189 1.0000   
         C         C         1.0       0.8165309611910755  0.5221539264652432  0.3600311428425374 1.0000   
         C         C         1.0       0.8041631497212126  0.5678980273802163  0.3265336829196559 1.0000   
         C         C         1.0       0.8155575994304393  0.6291829652967529  0.32565396838886734          1.0000   
         C         C         1.0       0.7798066441227929  0.4332508143986289  0.3156592378974363 1.0000   
         C         C         1.0       0.7547984801079635  0.3981788781566706  0.32560358332798905          1.0000   
         C         C         1.0       0.7392310167977643  0.3726345349864448  0.2807940947235358 1.0000   
         C         C         1.0       0.750916698090016   0.3754602801471018  0.22736257609954935          1.0000   
         C         C         1.0       0.7757335868343869  0.4087245772189209  0.21755371208254992          1.0000   
         C         C         1.0       0.7896599871235748  0.43686260548599704           0.2613927553293415 1.0000   
         C         C         1.0       0.8481893604128603  0.3893583216189177  0.3386931283059956 1.0000   
         C         C         1.0       0.8652955775171207  0.334845856295084   0.340372285159112  1.0000   
         C         C         1.0       0.856559127594445   0.2865148295496517  0.3764410397431645 1.0000   
         C         C         1.0       0.8320669414016757  0.29161333773766046           0.4067190242171585 1.0000   
         C         C         1.0       0.8151528473416025  0.34646656131454034           0.40533030174348766          1.0000   
         C         C         1.0       0.8242589201204366  0.39767550914439176           0.37296832298141175          1.0000   
         H         H         1.0       0.7351851528448373  0.6005558222633747  0.6776225923625028 1.0000   
         H         H         1.0       0.7915408603311748  0.6192683763878909  0.5308385172141038 1.0000   
         H         H         1.0       0.8102515114090667  0.7114866178426155  0.5664790653656133 1.0000   
         H         H         1.0       0.7580815788861976  0.7087760591146071  0.711223748154399  1.0000   
         H         H         1.0       0.7308862813531759  0.6432546358322406  0.4972986800961065 1.0000   
         H         H         1.0       0.6895275339490228  0.7214474424189338  0.49989981903654074          1.0000   
         H         H         1.0       0.6455247664979371  0.6136300181601791  0.6251085425608858 1.0000   
         H         H         1.0       0.6869735475866874  0.5513697988398836  0.6349638686256691 1.0000   
         H         H         1.0       0.7981466517708696  0.483707912663126   0.5630201741282875 1.0000   
         H         H         1.0       0.82129629459478    0.4469904910115535  0.47959823847759125          1.0000   
         H         H         1.0       0.7466124940055909  0.5020052636335538  0.38308577514796033          1.0000   
         H         H         1.0       0.7199755368981091  0.5329034963845499  0.4608090121397947 1.0000   
         H         H         1.0       0.8729136092331032  0.6042497610875446  0.41748720972351416          1.0000   
         H         H         1.0       0.8524196002104851  0.501804519449007   0.4151359566827609 1.0000   
         H         H         1.0       0.7838646948050515  0.5566839895664104  0.30635860791667424          1.0000   
         H         H         1.0       0.8079100967827172  0.6631718523215866  0.29857469688584726          1.0000   
         H         H         1.0       0.7486011149065269  0.38292763189775647           0.3683444849656081 1.0000   
         H         H         1.0       0.7180096407890574  0.3476842559777617  0.2914199347955208 1.0000   
         H         H         1.0       0.7871371783644248  0.40708450744899227           0.17609970759579485          1.0000   
         H         H         1.0       0.8109517727148956  0.4585135970379917  0.2520303913163316 1.0000   
         H         H         1.0       0.8540011205378398  0.42869076869782635           0.3101817067277491 1.0000   
         H         H         1.0       0.883435592432046   0.33079564772411085           0.3129445162509909 1.0000   
         H         H         1.0       0.8216900191304539  0.25258180748797837           0.4313412268057938 1.0000   
         H         H         1.0       0.7947320490056898  0.34649637962762186           0.42671676238890993          1.0000   
         C         C         1.0       0.8555040237263676  0.2887315508947653  0.820422402585861  1.0000   
         C         C         1.0       0.8322822427780225  0.3167037560106446  0.7910939033867507 1.0000   
         C         C         1.0       0.8100146886591827  0.341632675671639   0.8219843688416325 1.0000   
         C         C         1.0       0.8094402278871315  0.34184960437890005           0.8810321468994396 1.0000   
         C         C         1.0       0.8320455395601951  0.31243223370324036           0.907766934929829  1.0000   
         C         C         1.0       0.8551832369800808  0.28494110797560845           0.8778895514969381 1.0000   
         H         H         1.0       0.8304406722889323  0.31525468228381387           0.7459171983394979 1.0000   
         H         H         1.0       0.7897043588702537  0.35828768587869475           0.8018444562400932 1.0000   
         H         H         1.0       0.8349202115321724  0.31193606812088315           0.9520582909150558 1.0000   
         H         H         1.0       0.8755197648216925  0.2690949270022608  0.9015280327582887 1.0000   
         C         C         1.0       0.7758711098229215  0.29022147957665395           0.9902638250399514 1.0000   
         C         C         1.0       0.7727243887434431  0.3514993494103983  0.9729681263901276 1.0000   
         C         C         1.0       0.7608326605720163  0.3960431580204034  0.011212148750628703         1.0000   
         C         C         1.0       0.7566316097451     0.3804368029096121  0.06564507043574963          1.0000   
         C         C         1.0       0.7605578792799461  0.31865524980876053           0.08234776282080604          1.0000   
         C         C         1.0       0.7690580184847232  0.27358578549404705           0.0430759224820747 1.0000   
         C         C         1.0       0.7800894196504728  0.37250913010241843           0.9101497480595867 1.0000   
         C         C         1.0       0.7484734705658538  0.3520900212550164  0.8800760822421908 1.0000   
         C         C         1.0       0.722891267524978   0.3884438835186891  0.8866828095005191 1.0000   
         C         C         1.0       0.6947770980825081  0.3674052252220174  0.8736955613430859 1.0000   
         C         C         1.0       0.6915833541584835  0.30686391760662923           0.85225348987287   1.0000   
         C         C         1.0       0.7160596549285566  0.2681122880175249  0.8463827665190338 1.0000   
         C         C         1.0       0.7446051401690482  0.2926587036822526  0.8580286929960911 1.0000   
         C         C         1.0       0.8132544243262433  0.46489096784369066           0.9437389562301666 1.0000   
         C         C         1.0       0.8201591856775131  0.5295776983204369  0.9463512149350068 1.0000   
         C         C         1.0       0.8089123526842215  0.5701762936798342  0.9077563926238947 1.0000   
         C         C         1.0       0.7908395046697345  0.545045958063985   0.866215371099843  1.0000   
         C         C         1.0       0.7822459132506798  0.4839521349135699  0.8670839207800847 1.0000   
         C         C         1.0       0.7914209617537997  0.4433935746389605  0.909397639054879  1.0000   
         C         C         1.0       0.8171374565046421  0.6437727118363313  0.9118432264981946 1.0000   
         C         C         1.0       0.7379666223044815  0.6873009473052153  0.01476284829308483          1.0000   
         C         C         1.0       0.7643069867352865  0.6686754481974352  0.03938709990683442          1.0000   
         C         C         1.0       0.7875037508927889  0.6491475053180713  0.006072623874873617         1.0000   
         C         C         1.0       0.7883624697491186  0.659256242476893   0.9484289096557655 1.0000   
         C         C         1.0       0.761007926807739   0.6720453197403011  0.9257111890026017 1.0000   
         C         C         1.0       0.735637473144512   0.6864970967039065  0.9578485860565676 1.0000   
         C         C         1.0       0.8187043912617472  0.6743823125071499  0.851888576272958  1.0000   
         C         C         1.0       0.8310107924410817  0.6408144267153707  0.8062793443299852 1.0000   
         C         C         1.0       0.8351420141713422  0.671505526626346   0.7549202633302308 1.0000   
         C         C         1.0       0.8251956836750498  0.7332995384031351  0.7479140385320878 1.0000   
         C         C         1.0       0.8118243930296489  0.7650667815116787  0.7905544644835024 1.0000   
         C         C         1.0       0.8109499618602722  0.7362961066019308  0.841586789017087  1.0000   
         C         C         1.0       0.8508219513191057  0.7157272227405608  0.9746085214498962 1.0000   
         C         C         1.0       0.8780514656952751  0.7306648681798735  0.9979774930649301 1.0000   
         C         C         1.0       0.9030788534578237  0.6985224860500017  0.9838569128878414 1.0000   
         C         C         1.0       0.9009204840855367  0.6498618875066491  0.9477524118327751 1.0000   
         C         C         1.0       0.8729961548823568  0.6321352184205169  0.9254450761136324 1.0000   
         C         C         1.0       0.8478618409494434  0.6664555026110849  0.9391387827150294 1.0000   
         H         H         1.0       0.7828909389319864  0.25330727004152487           0.9618226050812229 1.0000   
         H         H         1.0       0.7588505674351799  0.44668366306052126           0.999251967266691  1.0000   
         H         H         1.0       0.7473246884973898  0.41927378185260195           0.08822024417884755          1.0000   
         H         H         1.0       0.7719233586718709  0.222714894626122   0.053074467966646395         1.0000   
         H         H         1.0       0.7220096659422647  0.4350677368990096  0.9058874506738651 1.0000   
         H         H         1.0       0.6746270400740381  0.39581907865606386           0.8846146861639737 1.0000   
         H         H         1.0       0.7128441257815942  0.21972292927197842           0.8301474379971074 1.0000   
         H         H         1.0       0.7606282924007521  0.2516485081739416  0.859671203872036  1.0000   
         H         H         1.0       0.8220520239938862  0.4374386503668556  0.9788355882653467 1.0000   
         H         H         1.0       0.8341017053038683  0.5495152545395944  0.9787143850050596 1.0000   
         H         H         1.0       0.7803028991634038  0.5746379647784677  0.8326688758920973 1.0000   
         H         H         1.0       0.767667230394575   0.4719403282796093  0.834672879451535  1.0000   
         H         H         1.0       0.7667091160700521  0.6695254438929121  0.08304494234892501          1.0000   
         H         H         1.0       0.8075914927457611  0.6316117729717593  0.022980588264335022         1.0000   
         H         H         1.0       0.7581279784078746  0.6737693763345332  0.8819140299632183 1.0000   
         H         H         1.0       0.7153447221804081  0.7063299343246352  0.9394591837869845 1.0000   
         H         H         1.0       0.83804976088053    0.5930128950889754  0.8138726653460386 1.0000   
         H         H         1.0       0.8459561395428598  0.6450692539069739  0.7204544137686342 1.0000   
         H         H         1.0       0.8015696917097763  0.8102720806725702  0.7883994996880066 1.0000   
         H         H         1.0       0.8003348585047533  0.7597822261296712  0.8756576966487368 1.0000   
         H         H         1.0       0.8305380883565576  0.7406217320729387  0.9877309477210242 1.0000   
         H         H         1.0       0.8799953198169703  0.7747353530420362  0.021707967833483943         1.0000   
         H         H         1.0       0.9202457290353623  0.6222614545172357  0.9349658009661799 1.0000   
         H         H         1.0       0.8707739798815975  0.5921098578062711  0.8958111806617962 1.0000   
         C         C         1.0       0.15755242304392292           0.22316350653590736          0.4162590307145821 1.0000   
         C         C         1.0       0.16571936703384393           0.25437902521387223          0.46447274093409546          1.0000   
         C         C         1.0       0.15135523282846686           0.30987696381034907          0.4808668758303851 1.0000   
         C         C         1.0       0.12646408375440288           0.33269231639463565          0.4519632050816121 1.0000   
         C         C         1.0       0.12007707085864006           0.3021969155081311 0.4008137873654802 1.0000   
         C         C         1.0       0.13448191271836052           0.2469302482239184 0.38634770112023264          1.0000   
         H         H         1.0       0.18566126883670586           0.24457130984654385          0.48805919502462847          1.0000   
         H         H         1.0       0.1575623293069448  0.33211617006226735           0.5194823477674368 1.0000   
         H         H         1.0       0.10287613262512374           0.3182011438042525 0.3728871795974739 1.0000   
         H         H         1.0       0.1291753206270294  0.22564506214696367           0.3454195729313851 1.0000   
         C         C         1.0       0.1283169704249303  0.44742966774770015           0.3699518314480567 1.0000   
         C         C         1.0       0.10566355366724856           0.44295598927916796          0.41086098647026875          1.0000   
         C         C         1.0       0.08065617534088365           0.4821626619012217 0.4037362802640574 1.0000   
         C         C         1.0       0.07791049774193115           0.5178648131547217 0.358328167886547  1.0000   
         C         C         1.0       0.10092696469907936           0.521323788055139  0.3186759881468438 1.0000   
         C         C         1.0       0.12566550515042318           0.48715126228178135          0.3260004810518151 1.0000   
         C         C         1.0       0.10773164688678305           0.3978629395570943 0.4658749676146269 1.0000   
         C         C         1.0       0.12143890958515624           0.44898852474527645          0.5079000264728873 1.0000   
         C         C         1.0       0.10274400417897644           0.4764782544554233 0.545603330254733  1.0000   
         C         C         1.0       0.11359640104878399           0.5190746902683127 0.5842939536460904 1.0000   
         C         C         1.0       0.14300338774661436           0.5382885102744589 0.5807640936244748 1.0000   
         C         C         1.0       0.16075423035269054           0.5109529062940139 0.542414601341604  1.0000   
         C         C         1.0       0.150785682991474   0.4658982072530035  0.5081818993538131 1.0000   
         C         C         1.0       0.05319872586696772           0.34989667121832746          0.4479491946348089 1.0000   
         C         C         1.0       0.02545716321409741           0.33780696007469024          0.4662022125034349 1.0000   
         C         C         1.0       0.019208604968269816          0.3292596694689988 0.5245404152643565 1.0000   
         C         C         1.0       0.04440699582454033           0.3292099079957125 0.5596635426401141 1.0000   
         C         C         1.0       0.0730845636862556  0.34441795796178176           0.5413950835017666 1.0000   
         C         C         1.0       0.07769710073432456           0.3598458313374959 0.48475228627347433          1.0000   
         C         C         1.0       0.9866810188659563  0.3240629917373774  0.5508128021382239 1.0000   
         C         C         1.0       0.9718713330180925  0.5216744879178956  0.5952449614286258 1.0000   
         C         C         1.0       0.9663437173475828  0.4982015375182282  0.5431773759807821 1.0000   
         C         C         1.0       0.9732326224799316  0.43699196754596015           0.5270327752900427 1.0000   
         C         C         1.0       0.9822067559932899  0.39560273524944917           0.568145881626483  1.0000   
         C         C         1.0       0.9921891481217171  0.4188599537760612  0.6210741422385792 1.0000   
         C         C         1.0       0.9854088837126657  0.48166925044417064           0.6342201483892123 1.0000   
         C         C         1.0       0.98164115517783    0.2757584978824506  0.6025927843574709 1.0000   
         C         C         1.0       0.9978460680009797  0.22068182073525167           0.6019629837279133 1.0000   
         C         C         1.0       0.9895629399246341  0.17176923372244535           0.6353554921148542 1.0000   
         C         C         1.0       0.9702585608654566  0.18074608090108918           0.6785729535094422 1.0000   
         C         C         1.0       0.9552042219473262  0.23779948186235544           0.6812733959912903 1.0000   
         C         C         1.0       0.9596419923351451  0.2848671963192879  0.6441791927441874 1.0000   
         C         C         1.0       0.9320527521978298  0.32084746350933635           0.5139399169820834 1.0000   
         C         C         1.0       0.9096307911580123  0.29082213067818874           0.48615506623224436          1.0000   
         C         C         1.0       0.9137801188418153  0.2408321665992932  0.4503419137401482 1.0000   
         C         C         1.0       0.9432357821706912  0.22246191619316605           0.4425643755979514 1.0000   
         C         C         1.0       0.9660411262155049  0.24818593829511193           0.47377548778138406          1.0000   
         C         C         1.0       0.9605463725936666  0.3002432675064902  0.5081478394486482 1.0000   
         H         H         1.0       0.1441189439722712  0.407786824970863   0.368614441193168  1.0000   
         H         H         1.0       0.06152125652816576           0.4813487666153918 0.4342631945451819 1.0000   
         H         H         1.0       0.056838132729622126          0.5415235545771908 0.35337833525050805          1.0000   
         H         H         1.0       0.140579950720656   0.4824712555488132  0.29186232775204357          1.0000   
         H         H         1.0       0.0794177722007352  0.47047019874361856           0.5504417225408234 1.0000   
         H         H         1.0       0.09881749755097702           0.5407616331098564 0.6090294063526656 1.0000   
         H         H         1.0       0.18419265309438693           0.5238698096008159 0.5407945091582468 1.0000   
         H         H         1.0       0.16448153236515828           0.442282885865625  0.4794708534429999 1.0000   
         H         H         1.0       0.05567353133338049           0.3634668980143141 0.4037263702942289 1.0000   
         H         H         1.0       0.006905302040502104          0.3449780050326034 0.4377711368848673 1.0000   
         H         H         1.0       0.04068666823371836           0.3184259469168706 0.603916787774108  1.0000   
         H         H         1.0       0.08916218746259608           0.35109449819931865          0.5730837868220736 1.0000   
         H         H         1.0       0.957460528365435   0.5301518367662913  0.511317600538615  1.0000   
         H         H         1.0       0.9694970728966249  0.4195594738591684  0.48426367820902133          1.0000   
         H         H         1.0       0.0032077417164646516         0.39336171619789473          0.6536973013933535 1.0000   
         H         H         1.0       0.9883601505879563  0.5004269252082622  0.6778138013222449 1.0000   
         H         H         1.0       0.013170962814118115          0.20588457249435044          0.5687938456688455 1.0000   
         H         H         1.0       0.00012359906039893787        0.12482574293438242          0.6328169314306189 1.0000   
         H         H         1.0       0.9390445081499692  0.2443993916179366  0.7122940053347847 1.0000   
         H         H         1.0       0.9461222823224985  0.3268067445047121  0.6407604394827306 1.0000   
         H         H         1.0       0.9275458094508702  0.3595481556556917  0.5440524909446491 1.0000   
         H         H         1.0       0.8871933176310564  0.3093290702039468  0.4945319319771103 1.0000   
         H         H         1.0       0.9490189016096829  0.187201985556761   0.41507295036847563          1.0000   
         H         H         1.0       0.9876344314387604  0.22859751598261846           0.4685402597781662 1.0000   
         C         C         1.0       0.9874796593244523  0.21563436459218527           0.0991544786912324 1.0000   
         C         C         1.0       0.01747208789259025           0.22202395440241599          0.10258275034294351          1.0000   
         C         C         1.0       0.03228527160816719           0.2399282072912528 0.05410992996882347          1.0000   
         C         C         1.0       0.018932259264276885          0.23661922572628205          0.0020911438073207833        1.0000   
         C         C         1.0       0.9880914084054556  0.23493990291747513           0.0006648094577161867        1.0000   
         C         C         1.0       0.9725271763143257  0.2292035715234994  0.05040588298370707          1.0000   
         H         H         1.0       0.030342736860270225          0.2246572340754464 0.14037089989259544          1.0000   
         H         H         1.0       0.0557419380364812  0.25128002178388575           0.053832268359242486         1.0000   
         H         H         1.0       0.9759265923746776  0.23640868646679794           0.9605918689969378 1.0000   
         H         H         1.0       0.9490731435421874  0.2201918092862549  0.046101665467632946         1.0000   
         C         C         1.0       0.009506049454335086          0.15013535445600135          0.9003832262568741 1.0000   
         C         C         1.0       0.023434805662690517          0.21025798313730792          0.898743203552044  1.0000   
         C         C         1.0       0.026309432950637923          0.23817162090756272          0.8443491976104232 1.0000   
         C         C         1.0       0.014678644068488289          0.20671938918661908          0.7983596247366564 1.0000   
         C         C         1.0       0.0009928670457584055         0.14728923584604248          0.8039752877886208 1.0000   
         C         C         1.0       0.999826880770795   0.11747005759359874           0.8539194034389775 1.0000   
         C         C         1.0       0.0395601377959478  0.24154960937470674           0.9488740523637046 1.0000   
         C         C         1.0       0.07025399625988693           0.19910612664685656          0.9486160786116429 1.0000   
         C         C         1.0       0.09459681138338238           0.22026814304427306          0.9190589036948076 1.0000   
         C         C         1.0       0.12020013899122128           0.18484694681143216          0.9155940183111689 1.0000   
         C         C         1.0       0.12248626209665447           0.13226340594948893          0.9442602646377644 1.0000   
         C         C         1.0       0.09905511584047466           0.11264197327574867          0.9762508366993986 1.0000   
         C         C         1.0       0.07166620509122379           0.1421043883199471 0.9728336006615089 1.0000   
         C         C         1.0       0.025483259696703398          0.36103578685855736          0.9262966632294926 1.0000   
         C         C         1.0       0.03169752068609588           0.4271097978181525 0.9280538800543585 1.0000   
         C         C         1.0       0.055219460614307936          0.45132322624813254          0.962025678228485  1.0000   
         C         C         1.0       0.07493786428808469           0.4059501511692157 0.9839146673971148 1.0000   
         C         C         1.0       0.07138616973763434           0.34191356788117433          0.9727565247275896 1.0000   
         C         C         1.0       0.04494746286423967           0.31810393831486267          0.9496598430707158 1.0000   
         C         C         1.0       0.06103388438952839           0.5243408340103062 0.9774245484450294 1.0000   
         C         C         1.0       0.1285783741070443  0.5897737963357543  0.8598941123804925 1.0000   
         C         C         1.0       0.09901094580979897           0.577629671864356  0.8404095605170078 1.0000   
         C         C         1.0       0.07863070787631532           0.5527425032679094 0.8764929544488276 1.0000   
         C         C         1.0       0.08574981206934962           0.5391798005648037 0.9317045144633486 1.0000   
         C         C         1.0       0.1161653092724868  0.5406358033065733  0.9468575591578741 1.0000   
         C         C         1.0       0.13782127199498562           0.5643500341427347 0.9106576899240693 1.0000   
         C         C         1.0       0.06940709050445704           0.5322622353475153 0.04198652830208638          1.0000   
         C         C         1.0       0.05821698412545673           0.4920095049255209 0.08254481583671502          1.0000   
         C         C         1.0       0.07102926979062363           0.4893562424995188 0.1357536819924301 1.0000   
         C         C         1.0       0.09321885358152304           0.5325915740354674 0.15147260568106824          1.0000   
         C         C         1.0       0.09943615339661682           0.5812311691756422 0.11641365000512116          1.0000   
         C         C         1.0       0.08634045988734029           0.5816880584397998 0.06486543883603346          1.0000   
         C         C         1.0       0.038156947307008915          0.6332394907183359 0.9659464916478872 1.0000   
         C         C         1.0       0.016850627134315177          0.6794689570363879 0.9681882725104568 1.0000   
         C         C         1.0       0.9879196356707746  0.660063446240117   0.9812265018999498 1.0000   
         C         C         1.0       0.9811992552638715  0.5966445407585893  0.9937960033384622 1.0000   
         C         C         1.0       0.002668549309652546          0.5525374331865069 0.9906629087244176 1.0000   
         C         C         1.0       0.03283207810685873           0.5701092594919299 0.9764468798619644 1.0000   
         H         H         1.0       0.005826913652257071          0.12547419995948994          0.938821068527189  1.0000   
         H         H         1.0       0.03607016355842241           0.28335731237379486          0.8382903485602414 1.0000   
         H         H         1.0       0.014688285335787032          0.2292881357846442 0.7588426973007932 1.0000   
         H         H         1.0       0.9944304770507193  0.06747815958130299           0.8581275894927664 1.0000   
         H         H         1.0       0.09394816052186195           0.26408296236652273          0.8968994390053762 1.0000   
         H         H         1.0       0.13554507937896676           0.2037679003099603 0.8884382369239864 1.0000   
         H         H         1.0       0.09968043164135798           0.0692916824438996 0.9987388679970466 1.0000   
         H         H         1.0       0.052154203509439556          0.12076854195078535          0.9907337748545599 1.0000   
         H         H         1.0       0.00633450540788516           0.3416908471587316 0.9009300487335445 1.0000   
         H         H         1.0       0.014738711586998354          0.4541243332350676 0.9108314958335215 1.0000   
         H         H         1.0       0.09436176966898047           0.42204065541001146          0.0092047134736426 1.0000   
         H         H         1.0       0.08402429633963648           0.30481442215051346          0.9983612951514892 1.0000   
         H         H         1.0       0.09011162561028252           0.6004893475889288 0.8018837529427554 1.0000   
         H         H         1.0       0.05445604064874843           0.548911797377093  0.8637046524117811 1.0000   
         H         H         1.0       0.12370602193884817           0.5176571578406443 0.9848812350958294 1.0000   
         H         H         1.0       0.15974294960440272           0.571401651493215  0.9290133800446203 1.0000   
         H         H         1.0       0.04007680777790412           0.45939593567961373          0.07471584779977691          1.0000   
         H         H         1.0       0.06245156952549458           0.453673381815982  0.16565966214872874          1.0000   
         H         H         1.0       0.11555993591584479           0.617476598926966  0.1283518518381921 1.0000   
         H         H         1.0       0.0922552143858495  0.6221548258451438  0.04056996493666465          1.0000   
         H         H         1.0       0.06024595149073497           0.647934633366493  0.9503634966974759 1.0000   
         H         H         1.0       0.02479118061550878           0.7233044803724398 0.9535561900534812 1.0000   
         H         H         1.0       0.9579408001778451  0.5818243824518333  0.999193472461944  1.0000   
         H         H         1.0       0.9948266890225564  0.5034089349057566  0.9989591479495908 1.0000   
         C         C         1.0       0.36329987781177553           0.5629421701581299 0.641377045557766  1.0000   
         C         C         1.0       0.3475349176966907  0.5220913179338715  0.6711257193431432 1.0000   
         C         C         1.0       0.3204313502438056  0.5006663553835615  0.6517094236383104 1.0000   
         C         C         1.0       0.3110425727026541  0.5129324934615177  0.5980841123498544 1.0000   
         C         C         1.0       0.32936698658210006           0.5506215971679095 0.5660240510460581 1.0000   
         C         C         1.0       0.35513845037459163           0.5762883793079491 0.5881389934693132 1.0000   
         H         H         1.0       0.3517489367760227  0.5163246161062577  0.7155005923459499 1.0000   
         H         H         1.0       0.3088123216355393  0.47073426053556405           0.6804212871581233 1.0000   
         H         H         1.0       0.3242648228236372  0.5651651186870408  0.5235629224829075 1.0000   
         H         H         1.0       0.37056995103941825           0.6034223860376098 0.562868467915093  1.0000   
         C         C         1.0       0.26350208901652944           0.5633641910354859 0.49911007873514257          1.0000   
         C         C         1.0       0.2664617954464427  0.4998455819780657  0.5173039060811276 1.0000   
         C         C         1.0       0.2511761435968308  0.45650614418055036           0.48488280440585557          1.0000   
         C         C         1.0       0.23555328719408472           0.4732126559976363 0.43776923848459365          1.0000   
         C         C         1.0       0.23341579162685572           0.5367052445461983 0.42044010836148127          1.0000   
         C         C         1.0       0.24794094236052597           0.5807084780481335 0.45205395303322016          1.0000   
         C         C         1.0       0.2808613116837148  0.480643252354517   0.5791042374847613 1.0000   
         C         C         1.0       0.2515855786148792  0.49729583744835504           0.6166269591970355 1.0000   
         C         C         1.0       0.22733513460663743           0.45588872655514606          0.6239865394438849 1.0000   
         C         C         1.0       0.20079279491807148           0.47834657868757186          0.6417902476628911 1.0000   
         C         C         1.0       0.1986274909098589  0.5387353170297308  0.6613248589627975 1.0000   
         C         C         1.0       0.22388673975843004           0.5803661954097651 0.6625500766943075 1.0000   
         C         C         1.0       0.25032789517352183           0.5580672511984888 0.639985345650936  1.0000   
         C         C         1.0       0.30865187716394216           0.3872565129708041 0.5371253739911033 1.0000   
         C         C         1.0       0.316201522080817   0.324177713650144   0.5339350324815857 1.0000   
         C         C         1.0       0.313584188915303   0.28234345315268466           0.5776515341805329 1.0000   
         C         C         1.0       0.2960998775417888  0.30537565255964627           0.6214773996763067 1.0000   
         C         C         1.0       0.2832429046261874  0.3644259685843576  0.6223652574010979 1.0000   
         C         C         1.0       0.289991252111789   0.40799971286622905           0.5808996897738922 1.0000   
         C         C         1.0       0.3274764795784646  0.21128182955901353           0.578364445638245  1.0000   
         C         C         1.0       0.24502361159417077           0.10937428876041189          0.540813845788384  1.0000   
         C         C         1.0       0.26166633427852987           0.13115874633709446          0.4972799981428806 1.0000   
         C         C         1.0       0.2872585723819418  0.1659381505770492  0.5074295881590802 1.0000   
         C         C         1.0       0.2971649060074761  0.17543113962260556           0.5648868796268525 1.0000   
         C         C         1.0       0.2780203367088059  0.15566521395475408           0.6068770981786971 1.0000   
         C         C         1.0       0.2542489160825007  0.11866687984521729           0.594432462128351  1.0000   
         C         C         1.0       0.3446496882162072  0.1996719481588186  0.6330424489059562 1.0000   
         C         C         1.0       0.36019422898253695           0.24627650835602186          0.6592347617294417 1.0000   
         C         C         1.0       0.37189742862434255           0.24105426918154269          0.713482287117386  1.0000   
         C         C         1.0       0.3700030421879654  0.1836340824331255  0.7409286003477322 1.0000   
         C         C         1.0       0.3585716470858142  0.1338734420123351  0.71163277516517   1.0000   
         C         C         1.0       0.34601228999939965           0.13993731219895267          0.6587498967398512 1.0000   
         C         C         1.0       0.35367091391655103           0.1304511261908945 0.5098186682038569 1.0000   
         C         C         1.0       0.37540314993566687           0.11516120274922392          0.4724949198753117 1.0000   
         C         C         1.0       0.39537992262048427           0.1616039636336517 0.455688352256691  1.0000   
         C         C         1.0       0.3937260728283871  0.22081892178159482           0.4769058420501664 1.0000   
         C         C         1.0       0.3726755943741778  0.23775076986098284           0.5159582005039377 1.0000   
         C         C         1.0       0.35214636959139833           0.19224793995226458          0.5332050361527505 1.0000   
         H         H         1.0       0.27677724476092735           0.6018315217877819 0.5226657160578763 1.0000   
         H         H         1.0       0.25132323953047037           0.40849485292112026          0.49655258654856327          1.0000   
         H         H         1.0       0.2239944909207853  0.4358494547826515  0.4174561458352589 1.0000   
         H         H         1.0       0.24685523912776577           0.6263214818007309 0.4402054689050042 1.0000   
         H         H         1.0       0.22761406091003286           0.4095038608909215 0.6026803248116606 1.0000   
         H         H         1.0       0.18136910276349535           0.44919306617448235          0.6414502692206564 1.0000   
         H         H         1.0       0.22292093360965784           0.6279168451059224 0.6790843875277888 1.0000   
         H         H         1.0       0.26996157012761945           0.5857367927418811 0.6448418039159758 1.0000   
         H         H         1.0       0.31872135091645454           0.422604510400806  0.5056562102770933 1.0000   
         H         H         1.0       0.3291842556069477  0.3072927931488752  0.4987526257523874 1.0000   
         H         H         1.0       0.28750911912404686           0.26917766958759043          0.6492213477075869 1.0000   
         H         H         1.0       0.26867380034456584           0.37429353953250777          0.6583162760761245 1.0000   
         H         H         1.0       0.2559437833727143  0.13090439917905528           0.4535909015995155 1.0000   
         H         H         1.0       0.3021389894772103  0.18297731126667902           0.47348880689102146          1.0000   
         H         H         1.0       0.2834985292927272  0.16334609519967236           0.6483265788764788 1.0000   
         H         H         1.0       0.24506782586266143           0.09634194690209939          0.6281824050409358 1.0000   
         H         H         1.0       0.358430119196791   0.29587435078680707           0.6423012808286127 1.0000   
         H         H         1.0       0.38049005344113535           0.2817914364643226 0.7336341037052514 1.0000   
         H         H         1.0       0.3577550275969519  0.08925452547590229           0.7351595135902569 1.0000   
         H         H         1.0       0.3393601609199626  0.09673209864372302           0.6357360315514458 1.0000   
         H         H         1.0       0.33960706883528263           0.08978319586720573          0.5226584598174923 1.0000   
         H         H         1.0       0.3775836489406883  0.06833618944979114           0.45577302780370954          1.0000   
         H         H         1.0       0.4065032824298404  0.25959347469902716           0.46217967967765294          1.0000   
         H         H         1.0       0.3745770254545385  0.2841530133856406  0.5343933931952689 1.0000   
         C         C         1.0       0.23467154988804492           0.4843688452843136 0.886639808960607  1.0000   
         C         C         1.0       0.21583515518750063           0.4473169061255118 0.9158516150529168 1.0000   
         C         C         1.0       0.2257652465061754  0.3879028926822042  0.9303849302117565 1.0000   
         C         C         1.0       0.25435041842833056           0.365604143092032  0.9180155212395628 1.0000   
         C         C         1.0       0.2742910486646669  0.40776768410068603           0.8913029266049595 1.0000   
         C         C         1.0       0.26294074407231155           0.46403659703442107          0.8752269695393569 1.0000   
         H         H         1.0       0.19313601839316533           0.460372351808448  0.9214270563170521 1.0000   
         H         H         1.0       0.21113982306077916           0.3597911279664336 0.9587714158302191 1.0000   
         H         H         1.0       0.29637155328102455           0.4005697813195093 0.879374593483466  1.0000   
         H         H         1.0       0.27907363366760973           0.4999040342004185 0.8632799534103118 1.0000   
         C         C         1.0       0.2950887751000394  0.27188279234566354           0.8580249422039574 1.0000   
         C         C         1.0       0.2912884546808117  0.26448728129928645           0.913527465591815  1.0000   
         C         C         1.0       0.31258363549071827           0.22879574166498767          0.9431655104094799 1.0000   
         C         C         1.0       0.33899666069018597           0.21481160483497902          0.9190890976157237 1.0000   
         C         C         1.0       0.3452415884455994  0.23189457877682082           0.8645344199117762 1.0000   
         C         C         1.0       0.32258133481729034           0.2595041773825124 0.83355518296832   1.0000   
         C         C         1.0       0.26489391878866797           0.2964136733262133 0.9433355507951645 1.0000   
         C         C         1.0       0.23966848581956715           0.24099609574680075          0.9329322638366756 1.0000   
         C         C         1.0       0.23675055596979563           0.18709864174596103          0.9666707704323804 1.0000   
         C         C         1.0       0.212957000419462   0.1464395210724614  0.956091829259651  1.0000   
         C         C         1.0       0.1934577899859285  0.15644482341995936           0.9126132172591004 1.0000   
         C         C         1.0       0.1977328545712895  0.20531399755521004           0.8744861119805302 1.0000   
         C         C         1.0       0.22133305729923408           0.24654973970660823          0.8862246171199754 1.0000   
         C         C         1.0       0.2989472595265587  0.3507526591378542  0.014477942092185447         1.0000   
         C         C         1.0       0.30656674481563495           0.3662948690924638 0.06774435329984141          1.0000   
         C         C         1.0       0.28614802662915    0.36372883054718114           0.1111514336878594 1.0000   
         C         C         1.0       0.25911961778773607           0.33567879226401864          0.09814211758004321          1.0000   
         C         C         1.0       0.25135441782085427           0.31536911897467923          0.04671903094287022          1.0000   
         C         C         1.0       0.27123685952118454           0.3208429152408655 0.0018716338677324806        1.0000   
         C         C         1.0       0.2952475126577604  0.3834460974473092  0.17316653149004457          1.0000   
         C         C         1.0       0.32363737583844837           0.1909942193646171 0.2210306015566017 1.0000   
         C         C         1.0       0.342077391790198   0.22891663464619086           0.19158022928462337          1.0000   
         C         C         1.0       0.33329089731089545           0.2915842197872183 0.1795302050209424 1.0000   
         C         C         1.0       0.30459207751197226           0.3127315551686862 0.19349520364676098          1.0000   
         C         C         1.0       0.28568487498198936           0.2681352248735793 0.21500634944078523          1.0000   
         C         C         1.0       0.2944660822761251  0.20813097838468073           0.22998705413596143          1.0000   
         C         C         1.0       0.26956529001284324           0.4113851210650564 0.21376386617762466          1.0000   
         C         C         1.0       0.24495155625135426           0.44561056568081814          0.19327645589340192          1.0000   
         C         C         1.0       0.22382679482119228           0.47161906840604184          0.22740966477663038          1.0000   
         C         C         1.0       0.22749195239176132           0.4657812785766362 0.28437123703339395          1.0000   
         C         C         1.0       0.2521448258530112  0.4345485578313468  0.3047832578346208 1.0000   
         C         C         1.0       0.27185351530415364           0.40523843604020515          0.27124322312044313          1.0000   
         C         C         1.0       0.3432638783431371  0.4390207393141354  0.2133274261484921 1.0000   
         C         C         1.0       0.36573034352629674           0.4833220063935852 0.212611738004302  1.0000   
         C         C         1.0       0.36531116229823085           0.5332943444951294 0.174158149675822  1.0000   
         C         C         1.0       0.3410363946401648  0.5370008391364581  0.13781543521353634          1.0000   
         C         C         1.0       0.3185203486120654  0.49424721809173305           0.14321211101475884          1.0000   
         C         C         1.0       0.3200388195295998  0.4421006676973956  0.17676943457232874          1.0000   
         H         H         1.0       0.27730980968797125           0.2876364306993626 0.828621395391454  1.0000   
         H         H         1.0       0.3087564204494688  0.22124141196262379           0.9862744727492899 1.0000   
         H         H         1.0       0.3550454186098823  0.1857407804081738  0.9412285068759612 1.0000   
         H         H         1.0       0.325102177277579   0.2731625255060364  0.7905015531239725 1.0000   
         H         H         1.0       0.2516409481905456  0.17545245584042446           0.9994563890745685 1.0000   
         H         H         1.0       0.2064823380143098  0.10661398373203769           0.9843967910044918 1.0000   
         H         H         1.0       0.1804464076192657  0.22291302654917655           0.8443840904041658 1.0000   
         H         H         1.0       0.224997753237691   0.28863227071856934           0.8580093462772899 1.0000   
         H         H         1.0       0.3167896600895549  0.35885191881012185           0.9851748713469395 1.0000   
         H         H         1.0       0.3292389474559782  0.384017320009545   0.0735502889590971 1.0000   
         H         H         1.0       0.2428480646039623  0.33053814871153203           0.1276629150384334 1.0000   
         H         H         1.0       0.22848261645343024           0.2936475396477241 0.04252921168170509          1.0000   
         H         H         1.0       0.3646850917761247  0.2155278138198431  0.18768802510170168          1.0000   
         H         H         1.0       0.34837928085009795           0.3223308044295545 0.15902980816569445          1.0000   
         H         H         1.0       0.2623297683982947  0.27236193744456844           0.22087377365889416          1.0000   
         H         H         1.0       0.28042740946451106           0.1767596009145281 0.2526387379857431 1.0000   
         H         H         1.0       0.24341803516588895           0.450216673504337  0.14818391652645024          1.0000   
         H         H         1.0       0.20960500881782387           0.5072598245855567 0.21009014355802202          1.0000   
         H         H         1.0       0.25722594631443524           0.43370052579108276          0.34839364215338353          1.0000   
         H         H         1.0       0.2914673007369402  0.3807806805041608  0.2871457152153236 1.0000   
         H         H         1.0       0.3448985130589222  0.3978071054104713  0.24253159761729481          1.0000   
         H         H         1.0       0.38372310579571456           0.47825231660709616          0.24121786922970423          1.0000   
         H         H         1.0       0.33838043956823105           0.5786076148813851 0.11144671240138959          1.0000   
         H         H         1.0       0.30025525629105393           0.4957625412419017 0.11777190270508586          1.0000   
         C         C         1.0       0.4663560607123576  0.6144948491554274  0.4298282794969773 1.0000   
         C         C         1.0       0.4936706618266441  0.5828758504205369  0.4294342248403641 1.0000   
         C         C         1.0       0.5064235907411103  0.5674430841625518  0.4783573231436374 1.0000   
         C         C         1.0       0.49075215617215423           0.5733142441223316 0.5300287515885772 1.0000   
         C         C         1.0       0.46034121125944716           0.5896673974055104 0.5254754641346667 1.0000   
         C         C         1.0       0.44944822815989566           0.6145331449186991 0.47566133197357924          1.0000   
         H         H         1.0       0.5091196052213676  0.5949504186872481  0.3965593975831513 1.0000   
         H         H         1.0       0.5296981754707978  0.5582729058301545  0.4791713492448231 1.0000   
         H         H         1.0       0.44495037814914806           0.5853925525399012 0.5628231599701478 1.0000   
         H         H         1.0       0.42777087248344703           0.6369263471598358 0.474643162984317  1.0000   
         C         C         1.0       0.47703644233704484           0.639294491161158  0.6471732271952123 1.0000   
         C         C         1.0       0.4927722254529972  0.5805563549828773  0.6421017658335574 1.0000   
         C         C         1.0       0.498482650074922   0.5476625967553245  0.6941342152067422 1.0000   
         C         C         1.0       0.4903207146623181  0.5762480522279508  0.7442559054403383 1.0000   
         C         C         1.0       0.47630444430557156           0.6333803722861642 0.7466205693184564 1.0000   
         C         C         1.0       0.46952514158961695           0.6630198220885625 0.6974104117444287 1.0000   
         C         C         1.0       0.5087701766320197  0.5619165263451029  0.5862976616643306 1.0000   
         C         C         1.0       0.5376576861694543  0.6073645135806013  0.5880714444484764 1.0000   
         C         C         1.0       0.5595800761670311  0.5963772021636785  0.62923232008971   1.0000   
         C         C         1.0       0.5866807818788817  0.6329083084786611  0.6333414523651397 1.0000   
         C         C         1.0       0.5892131984380965  0.6834391025288509  0.5956541699776389 1.0000   
         C         C         1.0       0.5666007235125324  0.6968173338045518  0.5585926819892547 1.0000   
         C         C         1.0       0.5422425547873214  0.6575650815928722  0.5534312737224237 1.0000   
         C         C         1.0       0.4950484237253521  0.44177417064377966           0.5888618975672223 1.0000   
         C         C         1.0       0.5012758733430741  0.38003552521557393           0.5717254629323233 1.0000   
         C         C         1.0       0.5277781355173862  0.36341030512758127           0.5450717032761113 1.0000   
         C         C         1.0       0.5499358230767339  0.40813963877098947           0.5428745767622078 1.0000   
         C         C         1.0       0.5443850880407223  0.4669259370225723  0.5613248291173478 1.0000   
         C         C         1.0       0.5166843658713974  0.4882068413918076  0.5821280444809792 1.0000   
         C         C         1.0       0.5384562338559489  0.2958476830733216  0.5298290662420765 1.0000   
         C         C         1.0       0.574688201934289   0.21975133112859246           0.682233407338762  1.0000   
         C         C         1.0       0.5441714090262647  0.22818923343370062           0.6790680133860542 1.0000   
         C         C         1.0       0.5325946964175946  0.2582017908744842  0.6312542867480399 1.0000   
         C         C         1.0       0.5509831559432724  0.2747201086645862  0.5882401539161372 1.0000   
         C         C         1.0       0.5805286463672934  0.27147051852482945           0.5952842380368353 1.0000   
         C         C         1.0       0.592220298821959   0.24116292262362485           0.6395889510611527 1.0000   
         C         C         1.0       0.5602785230396005  0.28499710365623115           0.4756970723035643 1.0000   
         C         C         1.0       0.5626713999546654  0.33086135013478957           0.43253509532201856          1.0000   
         C         C         1.0       0.5853208080817357  0.32849320963107276           0.39380726599935617          1.0000   
         C         C         1.0       0.6018534769093479  0.27607111075309465           0.38937887666744914          1.0000   
         C         C         1.0       0.5994062766683823  0.23031202329756212           0.43090383440243296          1.0000   
         C         C         1.0       0.580133892892475   0.23402756979799877           0.47166137526841434          1.0000   
         C         C         1.0       0.5100537967028611  0.1880582722885131  0.5256652699704094 1.0000   
         C         C         1.0       0.4853789951299866  0.15353761693829848           0.5089532341333975 1.0000   
         C         C         1.0       0.46804352610899386           0.1730151147148491 0.4660256725424565 1.0000   
         C         C         1.0       0.4712159890150712  0.23221453897084093           0.4480669565824307 1.0000   
         C         C         1.0       0.49291152274196465           0.2704546302220723 0.4689792253959826 1.0000   
         C         C         1.0       0.5126797003126954  0.2515784689612858  0.5097565252252669 1.0000   
         H         H         1.0       0.4713024549034446  0.6659169105576388  0.6123704182983607 1.0000   
         H         H         1.0       0.5094303830893273  0.5038962013312148  0.7015922454886533 1.0000   
         H         H         1.0       0.49162038629321336           0.5468448779736709 0.7803948134071562 1.0000   
         H         H         1.0       0.4600545782440891  0.7123076249584059  0.698272553510153  1.0000   
         H         H         1.0       0.558757750579264   0.5511901088125938  0.6534767641266404 1.0000   
         H         H         1.0       0.6041399351682346  0.6168224026934684  0.66171956583631   1.0000   
         H         H         1.0       0.5691881096029918  0.7346880010387826  0.5263436357100806 1.0000   
         H         H         1.0       0.5266473180032956  0.6723124850877149  0.5210246144691443 1.0000   
         H         H         1.0       0.4754603389205024  0.4543625804855976  0.6161843919993912 1.0000   
         H         H         1.0       0.48587249348688455           0.34377814471828927          0.5860077018404611 1.0000   
         H         H         1.0       0.5737415273295444  0.3991904810914053  0.5302408796321856 1.0000   
         H         H         1.0       0.5630907363135191  0.5023979155458531  0.5521728816887028 1.0000   
         H         H         1.0       0.5278622949693831  0.2136149923946682  0.7111853994054402 1.0000   
         H         H         1.0       0.5078943155750236  0.25841474801126135           0.6267772316114862 1.0000   
         H         H         1.0       0.5955841444001955  0.2890730265663803  0.5625229978106927 1.0000   
         H         H         1.0       0.617236905228632   0.23055190966357822           0.6422613957594507 1.0000   
         H         H         1.0       0.5476924074854791  0.37068307157570773           0.43135537458983136          1.0000   
         H         H         1.0       0.5874973740291882  0.3686817121308757  0.36568843355662967          1.0000   
         H         H         1.0       0.6158563030770435  0.19326016110520572           0.4322319007063958 1.0000   
         H         H         1.0       0.5769044243321122  0.19562382424549815           0.49964485834096695          1.0000   
         H         H         1.0       0.525601577148422   0.16251892351093078           0.5506155220852321 1.0000   
         H         H         1.0       0.48452431474719543           0.10484223051911279          0.5228623833528929 1.0000   
         H         H         1.0       0.45815461721171513           0.24807973349651818          0.41093641639192763          1.0000   
         H         H         1.0       0.4958097616012124  0.3184720649124068  0.4487484515111528 1.0000   
         C         C         1.0       0.6587587778575023  0.559990414008966   0.13380501447695026          1.0000   
         C         C         1.0       0.663894169760872   0.5365562904930535  0.0802649584201105 1.0000   
         C         C         1.0       0.6495497721375577  0.47963253488007895           0.06719253602906883          1.0000   
         C         C         1.0       0.6315500612883551  0.44766451113101013           0.10358616453986415          1.0000   
         C         C         1.0       0.6262289553192013  0.47351730704439643           0.15677834449877492          1.0000   
         C         C         1.0       0.6424407134197185  0.5264218936065627  0.17234328832714962          1.0000   
         H         H         1.0       0.6792183819075757  0.5593545460538152  0.05318765086265387          1.0000   
         H         H         1.0       0.6492976241942533  0.46399197367931855           0.02597142512505357          1.0000   
         H         H         1.0       0.6093393473112096  0.4578709325032835  0.181711565214524  1.0000   
         H         H         1.0       0.6353782645684728  0.5485105008908733  0.2089984282441918 1.0000   
         C         C         1.0       0.6468720906195872  0.3307632990969029  0.17206771826040027          1.0000   
         C         C         1.0       0.6182598290528463  0.33585208940221545           0.14466891875229848          1.0000   
         C         C         1.0       0.5960081247101698  0.2938430090067403  0.16463967892074094          1.0000   
         C         C         1.0       0.5998765837432912  0.26216668257262077           0.21373343769900777          1.0000   
         C         C         1.0       0.624119953250427   0.2707865903811708  0.2479444908200673 1.0000   
         C         C         1.0       0.6480704360367942  0.30488080732324235           0.22530598865807183          1.0000   
         C         C         1.0       0.6143176359558293  0.3818407363171107  0.09078412659302026          1.0000   
         C         C         1.0       0.6284475600902701  0.3337881464701788  0.04861931324780966          1.0000   
         C         C         1.0       0.6093530713412048  0.28625682041770917           0.027876764582107194         1.0000   
         C         C         1.0       0.6176006442586345  0.2542915088977482  0.9802884461342339 1.0000   
         C         C         1.0       0.6455663506187266  0.26346558745733856           0.9567746893680434 1.0000   
         C         C         1.0       0.6665558040774175  0.29422439754349583           0.9871589138512734 1.0000   
         C         C         1.0       0.658290781776543   0.3329587079669666  0.030459446561041496         1.0000   
         C         C         1.0       0.5563279805503185  0.40339582288443304           0.10740265426365903          1.0000   
         C         C         1.0       0.5278107227673694  0.4094311176086087  0.08594958117658758          1.0000   
         C         C         1.0       0.5233311916646558  0.4289196247051563  0.029263105070609363         1.0000   
         C         C         1.0       0.5485271345404854  0.43165463279555427           0.9953601639755119 1.0000   
         C         C         1.0       0.5769280770744708  0.420508563613174   0.01520373931898611          1.0000   
         C         C         1.0       0.5804493241755945  0.40467600147452665           0.07076642591723692          1.0000   
         C         C         1.0       0.4895990630433596  0.42841951667852274           0.0061063105164176346        1.0000   
         C         C         1.0       0.4657624129223754  0.23904762592390053           0.9499158682023899 1.0000   
         C         C         1.0       0.45542389450357673           0.2582112014475412 0.0005298147293166799        1.0000   
         C         C         1.0       0.465228647526982   0.31547368368031486           0.023081518114694832         1.0000   
         C         C         1.0       0.48162068770900407           0.3581909038530588 0.9907749260025704 1.0000   
         C         C         1.0       0.49490151700634355           0.3342095018824574 0.940597342964165  1.0000   
         C         C         1.0       0.48502023590898824           0.27671169646932   0.9198689172839339 1.0000   
         C         C         1.0       0.4845391160170527  0.47710602344803904           0.9507815904478917 1.0000   
         C         C         1.0       0.49997215278666257           0.5346632520314208 0.9459616731108295 1.0000   
         C         C         1.0       0.4882570156688087  0.5801479272336125  0.9164232060043633 1.0000   
         C         C         1.0       0.46519123495148584           0.5730461172783564 0.8792983566541873 1.0000   
         C         C         1.0       0.45257148552342197           0.5134147154226479 0.8748011126168197 1.0000   
         C         C         1.0       0.46157565095988945           0.46488018105948503          0.9094520091740877 1.0000   
         C         C         1.0       0.4368643016212787  0.4575303073677719  0.03602189690889279          1.0000   
         C         C         1.0       0.4164025827954442  0.4886798820250364  0.06662310054998266          1.0000   
         C         C         1.0       0.4251037409555584  0.5386158899442622  0.09767268399362727          1.0000   
         C         C         1.0       0.456029559595618   0.5476258389574307  0.10395783746195386          1.0000   
         C         C         1.0       0.47759118474047196           0.5097632120733958 0.0790218725210079 1.0000   
         C         C         1.0       0.46694676399902113           0.4629065093603913 0.04404716513069484          1.0000   
         H         H         1.0       0.6672985527686033  0.34709656181138515           0.1511188493244211 1.0000   
         H         H         1.0       0.5739524610319371  0.29256992512780783           0.14637987405999242          1.0000   
         H         H         1.0       0.5811555126668385  0.23816459339960852           0.23155512584025076          1.0000   
         H         H         1.0       0.6706962040277862  0.3057030646176723  0.24574764123302473          1.0000   
         H         H         1.0       0.5852602230076008  0.27999570278118263           0.04181365580916552          1.0000   
         H         H         1.0       0.6016706422091209  0.22239096509344983           0.9616178895656813 1.0000   
         H         H         1.0       0.690744045035541   0.294382748275685   0.9805909974276749 1.0000   
         H         H         1.0       0.6741295172336113  0.3675459976276098  0.04512909699627455          1.0000   
         H         H         1.0       0.5560420941740618  0.3991423684617469  0.14938230233735728          1.0000   
         H         H         1.0       0.5081917618896055  0.4035139945085891  0.11503672808614618          1.0000   
         H         H         1.0       0.5466884784359943  0.4452693425163113  0.9529641465931826 1.0000   
         H         H         1.0       0.5957382194031026  0.4213639658286071  0.9876163714333156 1.0000   
         H         H         1.0       0.4396959154982486  0.22934560059116724           0.025207055007259394         1.0000   
         H         H         1.0       0.45411006804167725           0.3346627767934004 0.06128549970159236          1.0000   
         H         H         1.0       0.5102781666917022  0.3635948095906433  0.9169924893692772 1.0000   
         H         H         1.0       0.49129210594325473           0.26303208041597825          0.8773312553979583 1.0000   
         H         H         1.0       0.519351376312909   0.5453152503290646  0.9688623082465733 1.0000   
         H         H         1.0       0.49769045366180337           0.6282615301211868 0.9261009539893038 1.0000   
         H         H         1.0       0.43318488913766834           0.5024410770831876 0.8527983206987398 1.0000   
         H         H         1.0       0.4477473863123286  0.42130866623793406           0.908836493188259  1.0000   
         H         H         1.0       0.42797032221186726           0.42617492011909613          0.006227010058087901         1.0000   
         H         H         1.0       0.3925503963875883  0.4840439655094951  0.060660634100403454         1.0000   
         H         H         1.0       0.46398200120737304           0.5939692893339796 0.12065511047864041          1.0000   
         H         H         1.0       0.5003882004092398  0.5186938955115182  0.0923163537129672 1.0000   
         C         C         1.0       0.8564785951096237  0.1410705041468172  0.7957086680734881 1.0000   
         C         C         1.0       0.8264469057405264  0.13663937060136577           0.8052579420189192 1.0000   
         C         C         1.0       0.8148669261959164  0.08794832464034252           0.8361123044323825 1.0000   
         C         C         1.0       0.8326124804563796  0.03975603060555577           0.8574894398615055 1.0000   
         C         C         1.0       0.8625602216363882  0.049006677956995315         0.8532618864033428 1.0000   
         C         C         1.0       0.8740160487545515  0.09644617651016074           0.8195077440250061 1.0000   
         H         H         1.0       0.8103288963366104  0.1688574211611773  0.7859307883745935 1.0000   
         H         H         1.0       0.7923429652660353  0.08673429409358246           0.8429926606294798 1.0000   
         H         H         1.0       0.8779839319772897  0.015592285900537295         0.8710063544278952 1.0000   
         H         H         1.0       0.8965332860835946  0.09183613857101336           0.8077307087876076 1.0000   
         C         C         1.0       0.8419638608850771  0.914871552552534   0.8048074848925406 1.0000   
         C         C         1.0       0.8380747559918912  0.9184414059025032  0.8633455896737994 1.0000   
         C         C         1.0       0.8533709640906354  0.8786481920263435  0.8974861495018878 1.0000   
         C         C         1.0       0.8728455375180849  0.8343693715054362  0.8769863433366546 1.0000   
         C         C         1.0       0.8790982439852083  0.8350401411577307  0.8220043505797955 1.0000   
         C         C         1.0       0.8633384061926489  0.876012622922895   0.7862761187251924 1.0000   
         C         C         1.0       0.8180264299629866  0.9792969456652477  0.8861596553717777 1.0000   
         C         C         1.0       0.7858566868956242  0.9510154782123225  0.8647472871539589 1.0000   
         C         C         1.0       0.7739677875793326  0.8996953781941129  0.8926620366069422 1.0000   
         C         C         1.0       0.7476316458298717  0.8736263614257936  0.8823843199224797 1.0000   
         C         C         1.0       0.7327627592915678  0.8872458376506516  0.8338790661133128 1.0000   
         C         C         1.0       0.7450152446533775  0.9337701396682263  0.7987074159817759 1.0000   
         C         C         1.0       0.7696749189860528  0.9669181991147588  0.8178616707941404 1.0000   
         C         C         1.0       0.842221953428558   0.9900533429791567  0.9845300542787069 1.0000   
         C         C         1.0       0.8389539976393092  0.9929287518056268  0.040064597050461614         1.0000   
         C         C         1.0       0.8111614792382563  0.003531353838452267         0.06461108651171044          1.0000   
         C         C         1.0       0.7885676249619897  0.026190365229148194         0.031476699643898876         1.0000   
         C         C         1.0       0.7915098379062666  0.02292462285716934           0.9736840406595195 1.0000   
         C         C         1.0       0.8178513279397591  0.9970865547378487  0.9513628228385211 1.0000   
         C         C         1.0       0.8034650804149438  0.9785477917769763  0.12672069107932882          1.0000   
         C         C         1.0       0.7372007966083959  0.8449813118106099  0.055742012904887124         1.0000   
         C         C         1.0       0.7686422992216356  0.8355438540771588  0.048511887080343596         1.0000   
         C         C         1.0       0.7879147321729835  0.8735128585837239  0.07889088496816199          1.0000   
         C         C         1.0       0.7792265197271027  0.9234138268410944  0.11289298930829995          1.0000   
         C         C         1.0       0.7472308142648031  0.9288685241665531  0.11933457740485975          1.0000   
         C         C         1.0       0.7270476633100119  0.8924427714478751  0.0913959150394732 1.0000   
         C         C         1.0       0.7880034143746475  0.031011560910579883         0.16646148523816162          1.0000   
         C         C         1.0       0.7914776065462543  0.09414500560556704           0.1504828503062945 1.0000   
         C         C         1.0       0.7770328313733258  0.13982874374121312           0.1792987762015779 1.0000   
         C         C         1.0       0.7629830884967158  0.12572476654769482           0.22797539413238865          1.0000   
         C         C         1.0       0.7620232485570301  0.06498556246818321           0.24979039403104888          1.0000   
         C         C         1.0       0.7751642716492345  0.017162037480410453         0.21761241823603358          1.0000   
         C         C         1.0       0.8358144634877347  0.9003414102742476  0.18084605116842895          1.0000   
         C         C         1.0       0.8599634470460108  0.8850292932982162  0.2154733130076584 1.0000   
         C         C         1.0       0.8845898972330047  0.9233924533601235  0.22116302281976638          1.0000   
         C         C         1.0       0.8815952114317976  0.9839813981241956  0.19868244098764662          1.0000   
         C         C         1.0       0.8559549063725644  0.0035961225510208195        0.17173060851655553          1.0000   
         C         C         1.0       0.8325987100062773  0.9619284184686135  0.16101390064971732          1.0000   
         H         H         1.0       0.8314723078308953  0.944878925718076   0.7740198757947934 1.0000   
         H         H         1.0       0.8475907068260281  0.8800966585184264  0.9403967508262641 1.0000   
         H         H         1.0       0.8853723978768159  0.8077807886468863  0.9047466952863734 1.0000   
         H         H         1.0       0.8638826655910885  0.8762372042446275  0.7430406618707232 1.0000   
         H         H         1.0       0.7868958306640508  0.8900867216543186  0.9293233792580896 1.0000   
         H         H         1.0       0.7394291130698072  0.8300453503451339  0.9040057786787795 1.0000   
         H         H         1.0       0.7334974420101638  0.9480963796071222  0.7627246985586462 1.0000   
         H         H         1.0       0.7819938360770164  0.0004149684029000067        0.7916725049545117 1.0000   
         H         H         1.0       0.8632350721086899  0.9800961241069769  0.963906406418634  1.0000   
         H         H         1.0       0.8577446580922008  0.9793803179296888  0.06697706252084679          1.0000   
         H         H         1.0       0.7680820250424464  0.03640052400883009           0.05113959908236687          1.0000   
         H         H         1.0       0.7738902460779268  0.039218496875467634         0.946691870046583  1.0000   
         H         H         1.0       0.7763446965261133  0.7985970248146813  0.02289732595223848          1.0000   
         H         H         1.0       0.8117092391263535  0.8624517043289638  0.06987894365057712          1.0000   
         H         H         1.0       0.7369287811224687  0.96575475053209    0.14456562506391316          1.0000   
         H         H         1.0       0.7035478467892925  0.8935542533893992  0.09926036968744989          1.0000   
         H         H         1.0       0.8033996640568708  0.10637979420911625           0.11171828889300862          1.0000   
         H         H         1.0       0.7757273993043678  0.18659063292575495           0.16499408122928916          1.0000   
         H         H         1.0       0.7519658356190337  0.05519852110736445           0.2906531908637119 1.0000   
         H         H         1.0       0.7737387620395373  0.9677211550391409  0.23182560014349202          1.0000   
         H         H         1.0       0.81925156272219    0.8648240515859357  0.17078768092418617          1.0000   
         H         H         1.0       0.860808731521603   0.8363105587915134  0.23156883951898055          1.0000   
         H         H         1.0       0.8997509980627719  0.016618332776667577         0.20630988549594742          1.0000   
         H         H         1.0       0.8516804724438227  0.05306657559464378           0.15924008872111406          1.0000   
         C         C         1.0       0.7664150443401294  0.22266229397936055           0.6615174917253078 1.0000   
         C         C         1.0       0.7495532060167714  0.16902345448624168           0.658012900984659  1.0000   
         C         C         1.0       0.754168663124747   0.1282440924401318  0.6129602923343607 1.0000   
         C         C         1.0       0.7746829200596834  0.143420515182072   0.5718071293251373 1.0000   
         C         C         1.0       0.7900300318075705  0.19870640897349823           0.5755382594983914 1.0000   
         C         C         1.0       0.7859443118341236  0.24077429953055063           0.6189542908727763 1.0000   
         H         H         1.0       0.7359305308812502  0.15370354957296506           0.6908549917768727 1.0000   
         H         H         1.0       0.7419537570358558  0.08863102252183941           0.6117544503794596 1.0000   
         H         H         1.0       0.8040027600779648  0.21879365354867808           0.5403263866756981 1.0000   
         H         H         1.0       0.7970323560586451  0.28584863699091856           0.6207643664562333 1.0000   
         C         C         1.0       0.762524384649709   0.18766101356080966           0.45095915189300584          1.0000   
         C         C         1.0       0.7822090697960936  0.1383565296085476  0.46209438144788534          1.0000   
         C         C         1.0       0.7970280700579965  0.11299060344933354           0.4168045091953492 1.0000   
         C         C         1.0       0.7945543589982227  0.13890201783809641           0.36512469680322374          1.0000   
         C         C         1.0       0.7753168117918631  0.18900230257491657           0.3556603649714973 1.0000   
         C         C         1.0       0.7579656546450826  0.21148599212035712           0.39872531958338964          1.0000   
         C         C         1.0       0.7796132257809768  0.09794783498022053           0.5196020162613367 1.0000   
         C         C         1.0       0.750183033403864   0.05417251610399676           0.5045623924935424 1.0000   
         C         C         1.0       0.7533157937730788  0.0005920296913546341        0.47389992636479705          1.0000   
         C         C         1.0       0.7318281555976551  0.9811431839033444  0.43525845933199514          1.0000   
         C         C         1.0       0.7041321424699415  0.009860645783787758         0.43221033898994143          1.0000   
         C         C         1.0       0.6999701964103168  0.06384616446254232           0.46479481972403225          1.0000   
         C         C         1.0       0.7215178890328166  0.08221142500546219           0.504245267532968  1.0000   
         C         C         1.0       0.8365618535632611  0.07695768787174373           0.5175755296871893 1.0000   
         C         C         1.0       0.8605911160415811  0.03578507603064773           0.5234892941846134 1.0000   
         C         C         1.0       0.8592328575150645  0.982100489307923   0.5547238661634173 1.0000   
         C         C         1.0       0.8345747418698937  0.975568864073353   0.5866965929705397 1.0000   
         C         C         1.0       0.8093174067588763  0.012405439497454429         0.5800585671572444 1.0000   
         C         C         1.0       0.8090456620557602  0.0601394441173313  0.5390254217326382 1.0000   
         C         C         1.0       0.8842931859055134  0.9296719259434427  0.5523488347796804 1.0000   
         C         C         1.0       0.844428526205298   0.810614580708694   0.4162537753410692 1.0000   
         C         C         1.0       0.8636669509601184  0.8591110013700525  0.40413213634790895          1.0000   
         C         C         1.0       0.8751897247353189  0.897237316493015   0.4464779967518566 1.0000   
         C         C         1.0       0.8698641795433765  0.8871748053620132  0.5020533107297838 1.0000   
         C         C         1.0       0.8469273834848832  0.8440862560852923  0.5125968815262488 1.0000   
         C         C         1.0       0.8353379528163627  0.8032838987016687  0.4710503755472306 1.0000   
         C         C         1.0       0.892685853694842   0.8909268409407491  0.6080492815518265 1.0000   
         C         C         1.0       0.8978130007459673  0.9292795384744544  0.6548978667632355 1.0000   
         C         C         1.0       0.9124419224637604  0.9072196358011472  0.7010723492239805 1.0000   
         C         C         1.0       0.9189969128517061  0.8455825722326391  0.7087231819107724 1.0000   
         C         C         1.0       0.914642085331434   0.8034411420529861  0.6633545864294212 1.0000   
         C         C         1.0       0.9006181021132921  0.8280110488498494  0.6129393479778116 1.0000   
         C         C         1.0       0.9385381606693304  0.9202402671816535  0.5155650229842845 1.0000   
         C         C         1.0       0.9665077338142478  0.9218569362659182  0.5394880558466646 1.0000   
         C         C         1.0       0.972894652656724   0.9661821553637621  0.5797661350580372 1.0000   
         C         C         1.0       0.9531259250023502  0.013240142356775175         0.5928173517513213 1.0000   
         C         C         1.0       0.9251132659545748  0.010658105000764362         0.5685971947417416 1.0000   
         C         C         1.0       0.9162826154657184  0.9585310272097362  0.5369593227595588 1.0000   
         H         H         1.0       0.7469679180393997  0.19453674130437748           0.48282264159820754          1.0000   
         H         H         1.0       0.8073547853353493  0.06642611461406833           0.4179118817433707 1.0000   
         H         H         1.0       0.80401969032472    0.1176185365450233  0.33030857300577443          1.0000   
         H         H         1.0       0.7463065469924436  0.2541115612793483  0.3933790900596302 1.0000   
         H         H         1.0       0.7741564184626943  0.9785278015732883  0.4756386250020877 1.0000   
         H         H         1.0       0.7377524058158526  0.9390210468506028  0.4136886513966961 1.0000   
         H         H         1.0       0.6803531007990652  0.0901731528271188  0.45910899900681845          1.0000   
         H         H         1.0       0.7207488413464923  0.12914389474586208           0.5250197290299666 1.0000   
         H         H         1.0       0.8411985697266746  0.11381969171059048           0.4888146545342108 1.0000   
         H         H         1.0       0.8815500173503446  0.04891987226458805           0.503828403847032  1.0000   
         H         H         1.0       0.8330313591689047  0.936189970949879   0.6173235382263774 1.0000   
         H         H         1.0       0.7876417033802484  0.9974818354573195  0.5995951459673876 1.0000   
         H         H         1.0       0.8696714219287637  0.8581270013350918  0.3595021994453201 1.0000   
         H         H         1.0       0.8903639975076737  0.9342867123667711  0.43801952188837456          1.0000   
         H         H         1.0       0.8420603755043071  0.8359892053260775  0.556474221734821  1.0000   
         H         H         1.0       0.8200499847175976  0.7655636911423357  0.48352190319339583          1.0000   
         H         H         1.0       0.892259616729438   0.9780736705998156  0.6602287087793172 1.0000   
         H         H         1.0       0.9173897914915028  0.9375783378930515  0.736340787755138  1.0000   
         H         H         1.0       0.9220761811281496  0.7534812125758843  0.6670937632420928 1.0000   
         H         H         1.0       0.8996127823403249  0.7998138087365405  0.5783355359639092 1.0000   
         H         H         1.0       0.9358927792161184  0.8768238028308103  0.4922321360584906 1.0000   
         H         H         1.0       0.9818444275502382  0.8863425952453187  0.5290749686838582 1.0000   
         H         H         1.0       0.9581301608439753  0.047301738936491367         0.6270474818208593 1.0000   
         H         H         1.0       0.9098683351427934  0.04665930959887876           0.583298763633712  1.0000   
         C         C         1.0       0.15141432685128797           0.0698758026211661 0.38581757239095155          1.0000   
         C         C         1.0       0.1663968547393555  0.023086357048188066         0.4136456554276885 1.0000   
         C         C         1.0       0.15193666610358147           0.9845679116433136 0.45336178406664757          1.0000   
         C         C         1.0       0.12243042425920114           0.9942734452950737 0.4655374742465056 1.0000   
         C         C         1.0       0.10736300984587888           0.040653017889491494         0.4360148779735814 1.0000   
         C         C         1.0       0.12107677354643265           0.0748091072486099 0.3950876837190875 1.0000   
         H         H         1.0       0.1904200680142285  0.018559229307812952         0.40514428480531484          1.0000   
         H         H         1.0       0.16464322717128055           0.9503008879573435 0.476925095469871  1.0000   
         H         H         1.0       0.08438176514893159           0.0475862921945549 0.443615617151589  1.0000   
         H         H         1.0       0.10850831583731835           0.11759399247957814          0.3754991624353607 1.0000   
         C         C         1.0       0.10859390406320446           0.08286270750846825          0.5651195095044947 1.0000   
         C         C         1.0       0.0962038107520038  0.02265291928220936           0.5643224426705068 1.0000   
         C         C         1.0       0.07611837239103703           0.00922504312127792          0.6072581269873675 1.0000   
         C         C         1.0       0.07053215589739281           0.054400619887700286         0.6485345170546643 1.0000   
         C         C         1.0       0.08568687119882923           0.11109163710097336          0.6515620224524651 1.0000   
         C         C         1.0       0.10520239700997558           0.12588627339879865          0.6094191113999808 1.0000   
         C         C         1.0       0.10812799843153931           0.9687261728251908 0.5210304345672125 1.0000   
         C         C         1.0       0.12730249387799386           0.9287705766089149 0.5661913341474158 1.0000   
         C         C         1.0       0.11352888719194709           0.8757327070383637 0.5904429477188413 1.0000   
         C         C         1.0       0.12566081772488102           0.8468505197087919 0.6337238482294079 1.0000   
         C         C         1.0       0.15002020569037255           0.8718877301649685 0.6606578981700927 1.0000   
         C         C         1.0       0.16390936955913937           0.9266375405912188 0.640589924156843  1.0000   
         C         C         1.0       0.15225248827332805           0.9541546871619284 0.5926366146610462 1.0000   
         C         C         1.0       0.0546546513056001  0.9362844298265319  0.4824336254526241 1.0000   
         C         C         1.0       0.035302493286850645          0.8945036072290639 0.46060493003790964          1.0000   
         C         C         1.0       0.04325355888774607           0.8338534496048615 0.44003709718995515          1.0000   
         C         C         1.0       0.07365510417534349           0.823594271959202  0.43990041616556935          1.0000   
         C         C         1.0       0.0944851383350871  0.8676512224199735  0.4637839005803121 1.0000   
         C         C         1.0       0.084160285752517   0.9221993954883027  0.4864505059674484 1.0000   
         C         C         1.0       0.019451125323390217          0.7827664180339645 0.41861679208891345          1.0000   
         C         C         1.0       0.001367823305747251          0.6807625815052681 0.5791061737069847 1.0000   
         C         C         1.0       0.9837670843139674  0.729541281567119   0.56116531328083   1.0000   
         C         C         1.0       0.9891029025333633  0.7595692556451651  0.510875718943765  1.0000   
         C         C         1.0       0.013257857013134533          0.7462595138632744 0.47502095769157393          1.0000   
         C         C         1.0       0.031439523048464535          0.6985372459638723 0.49507100854408453          1.0000   
         C         C         1.0       0.02629353403479673           0.6687253505237033 0.5465029983291332 1.0000   
         C         C         1.0       0.026897561873825193          0.7304550399305709 0.3710818704542468 1.0000   
         C         C         1.0       0.04781211421869447           0.7403259041144029 0.3287118563483932 1.0000   
         C         C         1.0       0.044759178139266   0.7109011188510433  0.27897040976861026          1.0000   
         C         C         1.0       0.024934490610583948          0.6618116543496761 0.27555740642608995          1.0000   
         C         C         1.0       0.006402235741050921          0.6456862326542081 0.3182811697465367 1.0000   
         C         C         1.0       0.006269135191144137          0.6809051320853494 0.36772045976605   1.0000   
         C         C         1.0       0.9628982024011987  0.7988832242138048  0.3882368196293216 1.0000   
         C         C         1.0       0.9401877860982837  0.8294779836837389  0.3609914998334159 1.0000   
         C         C         1.0       0.94785760221324    0.8819589633839018  0.32880790760321726          1.0000   
         C         C         1.0       0.9773589826388266  0.8996652382625543  0.3226953163043158 1.0000   
         C         C         1.0       0.9993458636836168  0.8676174905311652  0.3518643379038218 1.0000   
         C         C         1.0       0.9925887409644113  0.8188589024288304  0.387658543845221  1.0000   
         H         H         1.0       0.1258111256621468  0.09652159302693919           0.5349497717203303 1.0000   
         H         H         1.0       0.06516986320860951           0.9634334366939851 0.6116652171964381 1.0000   
         H         H         1.0       0.05194453710299474           0.044621840225673504         0.6773401831821789 1.0000   
         H         H         1.0       0.11776276937074415           0.16764264578902166          0.6093599508851182 1.0000   
         H         H         1.0       0.09373414725969864           0.8543803557245115 0.5733601716960607 1.0000   
         H         H         1.0       0.11667528661546767           0.7995471431077301 0.646232469137667  1.0000   
         H         H         1.0       0.18486559127857216           0.9446522859846254 0.6606914171754626 1.0000   
         H         H         1.0       0.16059370509198656           0.9957702303572262 0.5755746042621926 1.0000   
         H         H         1.0       0.04882672490685125           0.9819815965744373 0.5026097938578028 1.0000   
         H         H         1.0       0.011545410387976851          0.9062325120889401 0.46335072038708724          1.0000   
         H         H         1.0       0.08224798530816901           0.7824268873456102 0.4253991172899694 1.0000   
         H         H         1.0       0.11876111344116813           0.8537850029646383 0.46651890087421005          1.0000   
         H         H         1.0       0.9622711713476472  0.7391701388599279  0.5829427058652039 1.0000   
         H         H         1.0       0.9744845082197358  0.7983788436746384  0.49738147657268467          1.0000   
         H         H         1.0       0.050592078366551885          0.682046995308255  0.4718744159258751 1.0000   
         H         H         1.0       0.04082961196695978           0.6293474580329156 0.5632981621325587 1.0000   
         H         H         1.0       0.06513189118721385           0.7780723653625193 0.32949109923912695          1.0000   
         H         H         1.0       0.05630033055031136           0.7279876265375712 0.2427766013193423 1.0000   
         H         H         1.0       0.9878176404407655  0.6114032447089172  0.3078935984102278 1.0000   
         H         H         1.0       0.9897714543966903  0.6766106458451866  0.4033306866508889 1.0000   
         H         H         1.0       0.9574416815028565  0.7548811134685366  0.4099818090640331 1.0000   
         H         H         1.0       0.9162486871473476  0.8164684105285314  0.3596272996520622 1.0000   
         H         H         1.0       0.9819470683351872  0.9403137836132169  0.29456192690765354          1.0000   
         H         H         1.0       0.02275763359072802           0.8786017967391232 0.34734225772909905          1.0000   
         C         C         1.0       0.9860100912431737  0.06687814025519856           0.11357670237308093          1.0000   
         C         C         1.0       0.015168635074297665          0.0635144913899861 0.12992080674904827          1.0000   
         C         C         1.0       0.03243148728067946           0.009090997836021186         0.12391200858282048          1.0000   
         C         C         1.0       0.02078257050136778           0.9524436260955625 0.1004733202666106 1.0000   
         C         C         1.0       0.99093778037148    0.9548779499930672  0.08304167289159836          1.0000   
         C         C         1.0       0.9740090237831636  0.011812399725380285         0.09055214610742413          1.0000   
         H         H         1.0       0.02738566974761225           0.1040147229564381 0.14967790449966922          1.0000   
         H         H         1.0       0.05570928195204328           0.01382132954384896          0.14008452230300428          1.0000   
         H         H         1.0       0.9829660778902671  0.9096231160137853  0.06077490069197666          1.0000   
         H         H         1.0       0.9496263272542467  0.004661602133091192         0.08433052841945154          1.0000   
         C         C         1.0       0.002244132110297725          0.8273218433756779 0.1557417350588155 1.0000   
         C         C         1.0       0.024689208928869055          0.8295336220427831 0.11359203466285184          1.0000   
         C         C         1.0       0.03559429754938237           0.7723911407685328 0.09150678098805676          1.0000   
         C         C         1.0       0.026920027309648153          0.71778051848928   0.11247603213070634          1.0000   
         C         C         1.0       0.006209223594953794          0.7163586578506038 0.15614888339780042          1.0000   
         C         C         1.0       0.9938627131779976  0.7700228828503229  0.17461829126555894          1.0000   
         C         C         1.0       0.040164842937088   0.8936329224824696  0.0947291584564458 1.0000   
         C         C         1.0       0.06920927234995045           0.884575590876744  0.13541059572042458          1.0000   
         C         C         1.0       0.0964628694342351  0.8578590109729787  0.12017621631359288          1.0000   
         C         C         1.0       0.11819644600414558           0.8519861959824493 0.15970084809885177          1.0000   
         C         C         1.0       0.11236978806424092           0.8599864391338415 0.21556360572729782          1.0000   
         C         C         1.0       0.08551847077400287           0.8928062711265528 0.22816666414360176          1.0000   
         C         C         1.0       0.06322735339987062           0.9028687337938202 0.19041788374221702          1.0000   
         C         C         1.0       0.030072356284732926          0.8673796157373577 0.9870096737447027 1.0000   
         C         C         1.0       0.040465939078834   0.8650627975026509  0.9311271500660735 1.0000   
         C         C         1.0       0.06564727933330161           0.9046699748485272 0.9144871050918061 1.0000   
         C         C         1.0       0.08071141761908263           0.9353262008327203 0.9575124000800552 1.0000   
         C         C         1.0       0.07186643611172894           0.9304119328978908 0.012065390860030112         1.0000   
         C         C         1.0       0.04708603584159832           0.8980386551810087 0.027853895512598648         1.0000   
         C         C         1.0       0.0775653997226935  0.9113508079303161  0.853517694128018  1.0000   
         C         C         1.0       0.13629954727446103           0.7502557052353229 0.8518255216092563 1.0000   
         C         C         1.0       0.10706033685358718           0.7466672826962767 0.8356542667258515 1.0000   
         C         C         1.0       0.08842857951703587           0.7947881182953261 0.8372376197517423 1.0000   
         C         C         1.0       0.09892654521501565           0.8547208287305883 0.8532541993092458 1.0000   
         C         C         1.0       0.12879997191514714           0.860609223313813  0.87265792537768   1.0000   
         C         C         1.0       0.14690820716043906           0.8087714050255899 0.8709423968375493 1.0000   
         C         C         1.0       0.09307328375212287           0.9774906097895733 0.8354525334109084 1.0000   
         C         C         1.0       0.08029998967395824           0.031254180837495094         0.8499628866690466 1.0000   
         C         C         1.0       0.08375891474120234           0.08510898562147617          0.8198620068408343 1.0000   
         C         C         1.0       0.10425742254508075           0.08787258974056744          0.7785823554134798 1.0000   
         C         C         1.0       0.12229072421630605           0.03557888427833977          0.7709808360838792 1.0000   
         C         C         1.0       0.11576457996140088           0.9796690173125764 0.7971205757383731 1.0000   
         C         C         1.0       0.06116127609870081           0.8819005655971425 0.749146387475408  1.0000   
         C         C         1.0       0.04197545022606386           0.8809294036121137 0.7047392520937693 1.0000   
         C         C         1.0       0.014386575762100673          0.9097105691137363 0.7107844158733467 1.0000   
         C         C         1.0       0.0044986320988542605         0.9309662455030289 0.7609938605893501 1.0000   
         C         C         1.0       0.024514696030863092          0.9272038418140107 0.807729461473768  1.0000   
         C         C         1.0       0.05395007604645352           0.9068608055304573 0.8010534301200007 1.0000   
         H         H         1.0       0.9969235297380593  0.8685060139205254  0.17924001220405272          1.0000   
         H         H         1.0       0.05214590126108476           0.7747393327851926 0.06167656048010839          1.0000   
         H         H         1.0       0.03298914211450099           0.6701028162572269 0.09641742235234996          1.0000   
         H         H         1.0       0.9799696408617942  0.7668031952068949  0.2113982173895439 1.0000   
         H         H         1.0       0.10308034943956179           0.8504147936795701 0.07836534359329672          1.0000   
         H         H         1.0       0.13922844378319654           0.8388671349493594 0.1465241116869469 1.0000   
         H         H         1.0       0.08019359024959427           0.8992275476033303 0.2705322993723627 1.0000   
         H         H         1.0       0.041645027644187316          0.9223426081855207 0.20699678328944504          1.0000   
         H         H         1.0       0.012585380229229282          0.8355161975760658 0.9997942259304946 1.0000   
         H         H         1.0       0.027260998976962103          0.8338488960194426 0.9029284168858236 1.0000   
         H         H         1.0       0.09999497968871762           0.9653894871290305 0.9551610387231017 1.0000   
         H         H         1.0       0.08624506395465215           0.9519756736145769 0.041907662688664304         1.0000   
         H         H         1.0       0.09847739446867032           0.6999405981633964 0.8246352725039416 1.0000   
         H         H         1.0       0.06609931471092811           0.7857328589074312 0.8226046495578361 1.0000   
         H         H         1.0       0.13767191794921252           0.9016326148781858 0.8916696224793659 1.0000   
         H         H         1.0       0.1692609170093331  0.8193503829251773  0.8866602547877782 1.0000   
         H         H         1.0       0.0638678387692646  0.03076462503868216           0.8819172780621198 1.0000   
         H         H         1.0       0.0698833398532328  0.12621394444332434           0.8287183253099963 1.0000   
         H         H         1.0       0.1374464571473626  0.03330916685809604           0.7354407140450586 1.0000   
         H         H         1.0       0.1294746832616538  0.9383459512356978  0.785280230953219  1.0000   
         H         H         1.0       0.08324567518902959           0.8575045243638622 0.7380715907525526 1.0000   
         H         H         1.0       0.05032240565402035           0.8607099851421555 0.6679256397351627 1.0000   
         H         H         1.0       0.9829676065824983  0.9499317924787191  0.7654070344302092 1.0000   
         H         H         1.0       0.015729998472210127          0.9527169568230923 0.8444145921382891 1.0000   
         C         C         1.0       0.3684615247611205  0.6820277902036298  0.7354341375612788 1.0000   
         C         C         1.0       0.3383172185999178  0.66867254236891    0.7338854370349522 1.0000   
         C         C         1.0       0.3173595247010104  0.7160926395813226  0.7237173953658251 1.0000   
         C         C         1.0       0.3277559801337893  0.7774536549953853  0.7136742377025547 1.0000   
         C         C         1.0       0.3579326186303722  0.7883031771593516  0.7204049181712763 1.0000   
         C         C         1.0       0.37815723265619794           0.7407880332415012 0.7278329675738056 1.0000   
         H         H         1.0       0.33168039191138954           0.6223790093125376 0.7340169636049148 1.0000   
         H         H         1.0       0.2941907353111127  0.6994088446926584  0.7207677206163585 1.0000   
         H         H         1.0       0.36831975494837654           0.8338724086463757 0.7080663707023999 1.0000   
         H         H         1.0       0.40353370597048654           0.7507137250563948 0.73442291842754   1.0000   
         C         C         1.0       0.3151966402180265  0.9162925190120236  0.7631901407224548 1.0000   
         C         C         1.0       0.30833432989015114           0.900018841797311  0.7086824935981492 1.0000   
         C         C         1.0       0.2949804881028262  0.9461306110272434  0.6766235542176364 1.0000   
         C         C         1.0       0.2922624001066281  0.00663485110004558           0.6940904929057129 1.0000   
         C         C         1.0       0.29931730905385695           0.022594820601793852         0.7494908901725631 1.0000   
         C         C         1.0       0.3130522476265019  0.9770734275240387  0.7833226952327538 1.0000   
         C         C         1.0       0.3063042633323547  0.827486992981335   0.6860326904057071 1.0000   
         C         C         1.0       0.2709948089938155  0.8121235974315708  0.6916775158116751 1.0000   
         C         C         1.0       0.2519592904949612  0.8115652483023116  0.6452458764648298 1.0000   
         C         C         1.0       0.2222863492005326  0.7979148253339204  0.6496083076497855 1.0000   
         C         C         1.0       0.2095267449692573  0.7867862541986244  0.7016425827872709 1.0000   
         C         C         1.0       0.22779718935989754           0.7892443772294313 0.7485652966327289 1.0000   
         C         C         1.0       0.25828287488317136           0.7970166987476731 0.7439381154230253 1.0000   
         C         C         1.0       0.3410301007562197  0.8609873621841835  0.6036123916789486 1.0000   
         C         C         1.0       0.3476798171647857  0.859804215325602   0.5495015391476652 1.0000   
         C         C         1.0       0.33105018758895355           0.8228452300089826 0.5124037361963404 1.0000   
         C         C         1.0       0.31546262535643055           0.7720275028294931 0.5354880947736916 1.0000   
         C         C         1.0       0.3106085631941028  0.7675984519180732  0.5913707844288796 1.0000   
         C         C         1.0       0.3182483010451582  0.8215280801407073  0.6241935946348551 1.0000   
         C         C         1.0       0.32522402941976364           0.8385532396307306 0.4483770285547578 1.0000   
         C         C         1.0       0.2520690165840964  0.9561449742846614  0.502776867707103  1.0000   
         C         C         1.0       0.27981831069022106           0.979822875991192  0.49922282891525493          1.0000   
         C         C         1.0       0.30039969075518314           0.9475649468352805 0.46883832348869   1.0000   
         C         C         1.0       0.29662204641932466           0.8836182179666718 0.45662640941056626          1.0000   
         C         C         1.0       0.2685969345909379  0.8595472869132771  0.4646369866634417 1.0000   
         C         C         1.0       0.24552837541261302           0.8957563855058561 0.48375761468390793          1.0000   
         C         C         1.0       0.32057197297261397           0.7756056416753815 0.4113896236112215 1.0000   
         C         C         1.0       0.34032813810507734           0.727546851314047  0.4203198993564587 1.0000   
         C         C         1.0       0.33625102848019267           0.6674015358386494 0.3984125155452463 1.0000   
         C         C         1.0       0.30972874172898596           0.6560247236249612 0.3689294637778572 1.0000   
         C         C         1.0       0.2897319895259049  0.7042574707138143  0.3583971975619143 1.0000   
         C         C         1.0       0.29678702609183977           0.7632916206470529 0.37552159032938787          1.0000   
         C         C         1.0       0.3432433528248879  0.9092668599049846  0.36537917052284546          1.0000   
         C         C         1.0       0.3646602596683286  0.9400909716233647  0.33251681730186744          1.0000   
         C         C         1.0       0.3934751105956631  0.9340793539857093  0.34761025875882495          1.0000   
         C         C         1.0       0.4020502337908906  0.9031389263647325  0.39537779450421534          1.0000   
         C         C         1.0       0.38005011803119276           0.8742929906599954 0.4249849430552669 1.0000   
         C         C         1.0       0.35075609091963184           0.8744722297413359 0.4105415841665656 1.0000   
         H         H         1.0       0.32017661725201235           0.8743442484327951 0.7908603390113853 1.0000   
         H         H         1.0       0.28526893212969767           0.9365502275172984 0.6357815390038084 1.0000   
         H         H         1.0       0.27931996195587383           0.04131271092720623          0.6675313122163501 1.0000   
         H         H         1.0       0.31937243788097974           0.9879886404393402 0.8243221096185122 1.0000   
         H         H         1.0       0.2576914055773446  0.8302092637827634  0.6057519297479973 1.0000   
         H         H         1.0       0.20776345702849622           0.7971114871598591 0.6135257334280025 1.0000   
         H         H         1.0       0.21584246199278176           0.7702338082420265 0.7865261684704574 1.0000   
         H         H         1.0       0.2724574559847563  0.808731276639162   0.7802456924778731 1.0000   
         H         H         1.0       0.35206259606334317           0.89654295834      0.6307672228120874 1.0000   
         H         H         1.0       0.3580391325983639  0.8992414217331146  0.5285019859048856 1.0000   
         H         H         1.0       0.3023716676255875  0.737660654778864   0.5109831491862447 1.0000   
         H         H         1.0       0.2969893288912304  0.7263842793250604  0.604820274771651  1.0000   
         H         H         1.0       0.2893371696340257  0.023287938094660898         0.514933585540206  1.0000   
         H         H         1.0       0.32174322576649916           0.9749565566163512 0.46698929615125434          1.0000   
         H         H         1.0       0.2616567211117543  0.8118618575292886  0.4570171163890016 1.0000   
         H         H         1.0       0.2230664342404966  0.8736581242380008  0.48567603404162013          1.0000   
         H         H         1.0       0.36138631420297784           0.7364346784041533 0.4407227907931881 1.0000   
         H         H         1.0       0.3511701692160561  0.6346331271725953  0.4141665052147023 1.0000   
         H         H         1.0       0.26892930970418183           0.6981790473098026 0.33187753369187556          1.0000   
         H         H         1.0       0.2783017651180381  0.7982843105596484  0.3671320353134373 1.0000   
         H         H         1.0       0.3205453696820969  0.909139844130488   0.34934762023617455          1.0000   
         H         H         1.0       0.3574904467763822  0.9715111361094866  0.2998378660993537 1.0000   
         H         H         1.0       0.4252437047597119  0.9006557324535452  0.4055600150077275 1.0000   
         H         H         1.0       0.3873711333672389  0.8518146588739268  0.46212666516252576          1.0000   
         C         C         1.0       0.2436956025196468  0.6290450412016436  0.9549589848091502 1.0000   
         C         C         1.0       0.2223328948415103  0.6758003212684687  0.9684874121574112 1.0000   
         C         C         1.0       0.22203714589121293           0.6982286821091477 0.021389419913061758         1.0000   
         C         C         1.0       0.2431067405244425  0.6796624865481116  0.060779819133697455         1.0000   
         C         C         1.0       0.2654154352476679  0.6392264680044869  0.04373679990234569          1.0000   
         C         C         1.0       0.2641001336803367  0.6077962032934061  0.9939545881826931 1.0000   
         H         H         1.0       0.20540990464326384           0.7010570614356253 0.944830907277863  1.0000   
         H         H         1.0       0.20692215441358563           0.7334216881454014 0.032666172372855184         1.0000   
         H         H         1.0       0.2818579114666275  0.6231211616246396  0.07448763337825115          1.0000   
         H         H         1.0       0.27997484853046173           0.5712259983548629 0.9874288617701515 1.0000   
         C         C         1.0       0.25905748040182286           0.6312031687457603 0.1795171521807286 1.0000   
         C         C         1.0       0.2682517520616853  0.691654902460867   0.16372197881765116          1.0000   
         C         C         1.0       0.2929630399684691  0.7179163541491308  0.1899021046602929 1.0000   
         C         C         1.0       0.31004278838587784           0.6818066806153267 0.22384036162572274          1.0000   
         C         C         1.0       0.30027605826535525           0.6234304947260817 0.2422559467714056 1.0000   
         C         C         1.0       0.27516268136706584           0.5993039076915788 0.21833427348964451          1.0000   
         C         C         1.0       0.2477029391446515  0.726995305820841   0.11713428276413573          1.0000   
         C         C         1.0       0.21898083589061543           0.7416470190643931 0.1535200284086884 1.0000   
         C         C         1.0       0.2209484235549094  0.7842430808003146  0.1994504089677731 1.0000   
         C         C         1.0       0.1978944848672478  0.7926082051113155  0.23625692215113347          1.0000   
         C         C         1.0       0.17185849372852435           0.7589288700712918 0.23079484763207736          1.0000   
         C         C         1.0       0.1700302714584767  0.7137869359946587  0.18864904732701637          1.0000   
         C         C         1.0       0.19344496460731006           0.7070413910550555 0.15047480390503765          1.0000   
         C         C         1.0       0.29296864596153355           0.7822904048669291 0.07124859242906534          1.0000   
         C         C         1.0       0.3074677182021428  0.8302448184599074  0.04974973600676136          1.0000   
         C         C         1.0       0.29279842806156964           0.8874650005699948 0.03767061317453346          1.0000   
         C         C         1.0       0.2635478408416622  0.8941630574779522  0.05884610500995113          1.0000   
         C         C         1.0       0.2492173117910284  0.8434964327803682  0.08171782352689494          1.0000   
         C         C         1.0       0.2634822363573012  0.7866522670996194  0.08845000153729488          1.0000   
         C         C         1.0       0.31048056697461496           0.9444215583584648 0.009605843873705  1.0000   
         C         C         1.0       0.3422713987163426  0.049076710279784   0.1616052697447541 1.0000   
         C         C         1.0       0.3515672754735326  0.9900208525242206  0.14823090892561486          1.0000   
         C         C         1.0       0.3400207903282033  0.9574022872739308  0.10259334847944013          1.0000   
         C         C         1.0       0.31900435365158275           0.983308978540128  0.06747491326601773          1.0000   
         C         C         1.0       0.30749373758957804           0.04039907218995764          0.08368361373840383          1.0000   
         C         C         1.0       0.320021659369818   0.07512174798920235           0.1258588704719763 1.0000   
         C         C         1.0       0.2908012828189011  0.9844579482849132  0.9641554934341765 1.0000   
         C         C         1.0       0.26771349222944085           0.9580145232063789 0.9349698776641249 1.0000   
         C         C         1.0       0.25716464416107077           0.9901502234507179 0.8889703392452888 1.0000   
         C         C         1.0       0.26902621707212865           0.04852389877236285          0.8748931433114694 1.0000   
         C         C         1.0       0.2919360876751184  0.07361234451639764           0.9054976761688363 1.0000   
         C         C         1.0       0.30393824408244424           0.03994239254854692          0.9482311415815726 1.0000   
         C         C         1.0       0.3642637350338678  0.9518553872055247  0.9758880803673394 1.0000   
         C         C         1.0       0.38737483368905923           0.933726587588575  0.9426448515599795 1.0000   
         C         C         1.0       0.3832173036181105  0.8887164336369491  0.9006399322022007 1.0000   
         C         C         1.0       0.3544168093120905  0.8629145205768238  0.8928208492476152 1.0000   
         C         C         1.0       0.33200184389909837           0.8773591017110361 0.9277132643835481 1.0000   
         C         C         1.0       0.33669828386576645           0.92069346041902   0.9712945430554943 1.0000   
         H         H         1.0       0.23912442776903556           0.6111036575077726 0.16307358611862144          1.0000   
         H         H         1.0       0.3000314540063556  0.7654383744553653  0.18697604836716275          1.0000   
         H         H         1.0       0.33102254879239906           0.7032143196600846 0.24203949489278198          1.0000   
         H         H         1.0       0.2679978125782506  0.5571693000218187  0.23571699229338106          1.0000   
         H         H         1.0       0.2417787907708315  0.8101303794024851  0.2033345951294141 1.0000   
         H         H         1.0       0.20035830232627638           0.8330881349602429 0.26269498506726063          1.0000   
         H         H         1.0       0.15227658142941314           0.6831866011708136 0.178825924350263  1.0000   
         H         H         1.0       0.19074397041702715           0.6763172761622227 0.11175108153790325          1.0000   
         H         H         1.0       0.3058234027730323  0.7422344799677115  0.07467992989098549          1.0000   
         H         H         1.0       0.33136628839854115           0.8240628519880071 0.038356474161032494         1.0000   
         H         H         1.0       0.2514199789075423  0.9393885377370821  0.05574682911383588          1.0000   
         H         H         1.0       0.2254741994426194  0.8471060831811564  0.094987511083507  1.0000   
         H         H         1.0       0.3726416431972564  0.9700932608897819  0.16576328075199953          1.0000   
         H         H         1.0       0.350128426437864   0.9136386621234427  0.0921603056399547 1.0000   
         H         H         1.0       0.28946006738988556           0.055773949263618006         0.061915010597553  1.0000   
         H         H         1.0       0.31233057671148573           0.12277930987015129          0.13299164646981998          1.0000   
         H         H         1.0       0.2563681656510567  0.9162059139405877  0.9484740886980692 1.0000   
         H         H         1.0       0.23779054866145738           0.969924239215949  0.869951736714     1.0000   
         H         H         1.0       0.3019454125870553  0.11808157613736592           0.888537216668934  1.0000   
         H         H         1.0       0.3240033129124703  0.05935538771880977           0.9665918147243279 1.0000   
         H         H         1.0       0.3669417939667969  0.9843680063521364  0.009181947308531502         1.0000   
         H         H         1.0       0.408912271503096   0.9594805183916891  0.9485234619864575 1.0000   
         H         H         1.0       0.34927507795907187           0.8299415947351878 0.8577325942475309 1.0000   
         H         H         1.0       0.312391053073238   0.8455951061380775  0.9230003838638261 1.0000   
         C         C         1.0       0.6396164439795576  0.7159366959652214  0.15388965317305825          1.0000   
         C         C         1.0       0.6509447132985555  0.7706973836836777  0.13183664055311883          1.0000   
         C         C         1.0       0.6364201310030057  0.7990356038911886  0.09016198700486044          1.0000   
         C         C         1.0       0.6089954421882502  0.7774798350667916  0.07038804041130198          1.0000   
         C         C         1.0       0.5956326623704878  0.7279210846075372  0.09940575572737687          1.0000   
         C         C         1.0       0.6120612773490639  0.6952513429829646  0.13962706411655157          1.0000   
         H         H         1.0       0.6741899772003436  0.7810107794237038  0.14179283930266398          1.0000   
         H         H         1.0       0.6498561299090503  0.8352213926511189  0.06618361042437759          1.0000   
         H         H         1.0       0.5738147314179782  0.7138885952207813  0.09426221475955199          1.0000   
         H         H         1.0       0.603645200481956   0.653292059451625   0.15912551142304632          1.0000   
         C         C         1.0       0.592488004384441   0.6900727452704152  0.9772899094778069 1.0000   
         C         C         1.0       0.5789196829892814  0.7486060847706478  0.9790308835778475 1.0000   
         C         C         1.0       0.5560745813313096  0.7584833337041426  0.9430740737426077 1.0000   
         C         C         1.0       0.5495609444503834  0.7206841725941886  0.9008724323056383 1.0000   
         C         C         1.0       0.5635026476508831  0.6632460089540316  0.897804285709648  1.0000   
         C         C         1.0       0.5860360436930101  0.6476979512354059  0.9351033183650516 1.0000   
         C         C         1.0       0.5940587678095428  0.8069378450832897  0.012687805826342657         1.0000   
         C         C         1.0       0.6175573071679058  0.8311982168173251  0.9670546969879805 1.0000   
         C         C         1.0       0.6088480816598553  0.875441423904899   0.9274853125908604 1.0000   
         C         C         1.0       0.6278913165121345  0.8924164198735755  0.8831116700649362 1.0000   
         C         C         1.0       0.6545439591042974  0.8591770214857941  0.87437512245429   1.0000   
         C         C         1.0       0.6625646405494693  0.8142292935304527  0.9132146499973507 1.0000   
         C         C         1.0       0.6441837086807914  0.7993876638056924  0.9563699413845197 1.0000   
         C         C         1.0       0.545025662404341   0.8485750262895763  0.053236693368343246         1.0000   
         C         C         1.0       0.5275818599476262  0.8926970228317863  0.07912603959285391          1.0000   
         C         C         1.0       0.5379765458702427  0.9519845176543371  0.09067011453564033          1.0000   
         C         C         1.0       0.5666125343085732  0.9663798004750043  0.07241556588746079          1.0000   
         C         C         1.0       0.5834120250164355  0.9226009347924862  0.045713252939749704         1.0000   
         C         C         1.0       0.5728880782208736  0.8612637232052233  0.036813524004551956         1.0000   
         C         C         1.0       0.5159542430362526  0.00705584994455255           0.11257974127035576          1.0000   
         C         C         1.0       0.4872351490252084  0.0945024698922119  0.9553823612480659 1.0000   
         C         C         1.0       0.47058361517790326           0.04450529164241246          0.9780332713754274 1.0000   
         C         C         1.0       0.48135175471555486           0.013958558761668627         0.02301691311214849          1.0000   
         C         C         1.0       0.5067443706588771  0.033635257089896786         0.05252825388777005          1.0000   
         C         C         1.0       0.5241814436685425  0.08089778467962416           0.025715769033792135         1.0000   
         C         C         1.0       0.5136684708878037  0.11153625431770986           0.9797461372974479 1.0000   
         C         C         1.0       0.5331053123939514  0.05932019081140649           0.1519784397221804 1.0000   
         C         C         1.0       0.5545835132590516  0.037860937718724896         0.1878072902904326 1.0000   
         C         C         1.0       0.5601273919336641  0.07005789433548748           0.23704327098300548          1.0000   
         C         C         1.0       0.5459806357054833  0.12652722469172195           0.2487130585418423 1.0000   
         C         C         1.0       0.5271461363351118  0.15066127583500477           0.2081303864217655 1.0000   
         C         C         1.0       0.5211077133050173  0.11800750416536099           0.16081047210588117          1.0000   
         C         C         1.0       0.4605300558133669  0.015324493999857136         0.15295137015583227          1.0000   
         C         C         1.0       0.43615159342376264           0.9929734305255445 0.18257924990814806          1.0000   
         C         C         1.0       0.4404257686688099  0.9414838839695068  0.21995008442589753          1.0000   
         C         C         1.0       0.4691833259159617  0.916007718346897   0.22383568316692617          1.0000   
         C         C         1.0       0.49234320718714764           0.9362405394466996 0.18997572296759102          1.0000   
         C         C         1.0       0.4890410166103452  0.9895383593336383  0.15589624506956512          1.0000   
         H         H         1.0       0.6117998781285158  0.6810410160016906  0.002059245673086574         1.0000   
         H         H         1.0       0.5425466578190266  0.8027858955979602  0.9425756454348686 1.0000   
         H         H         1.0       0.5314443262231924  0.7312506203265839  0.8710061334491822 1.0000   
         H         H         1.0       0.5984372211986059  0.6059789402586281  0.932613560351232  1.0000   
         H         H         1.0       0.5888805099199462  0.9050509712024849  0.9345873051496414 1.0000   
         H         H         1.0       0.6174917166442967  0.9199625651482991  0.8500565350940158 1.0000   
         H         H         1.0       0.6818305335845922  0.7850823212422073  0.9081672442925574 1.0000   
         H         H         1.0       0.6513903457072683  0.7607211830967332  0.98526125678554   1.0000   
         H         H         1.0       0.5351337992408012  0.8051340401274149  0.049163537861818485         1.0000   
         H         H         1.0       0.5049447565309249  0.883164072323409   0.08745485273701115          1.0000   
         H         H         1.0       0.574877645474106   0.012398029599822946         0.08010062124513251          1.0000   
         H         H         1.0       0.6059992006494738  0.9373427202684518  0.03235894769015846          1.0000   
         H         H         1.0       0.45166528661813043           0.027413124048748294         0.952503969033443  1.0000   
         H         H         1.0       0.46757562884117443           0.9771944000641511 0.0418778232326289 1.0000   
         H         H         1.0       0.543485190627152   0.09825932660414693           0.048111820130002377         1.0000   
         H         H         1.0       0.526124080827166   0.153026397734648   0.9638522779856499 1.0000   
         H         H         1.0       0.5638412558768139  0.9920635969899476  0.1854027331424899 1.0000   
         H         H         1.0       0.5742394970563335  0.04804580496492772           0.26963019236631297          1.0000   
         H         H         1.0       0.5161165324306447  0.19304383916855783           0.21390269928658814          1.0000   
         H         H         1.0       0.5030806780730593  0.13965785291765287           0.13582609076029706          1.0000   
         H         H         1.0       0.4560451116423528  0.05597542104641251           0.1260766973652767 1.0000   
         H         H         1.0       0.4150814236353354  0.019627741833653234         0.17857947409957678          1.0000   
         H         H         1.0       0.47324781963875884           0.8744361801375806 0.24949830246854537          1.0000   
         H         H         1.0       0.514806016665548   0.9149470603599098  0.19508977700449678          1.0000   
         C         C         1.0       0.49430615297206515           0.7446697621671683 0.38622685044232713          1.0000   
         C         C         1.0       0.5245221552721667  0.7401561948475914  0.39658284349359424          1.0000   
         C         C         1.0       0.5384213194122237  0.7870837343865755  0.4241248066573956 1.0000   
         C         C         1.0       0.5248982440610266  0.8430168606839709  0.43653749136238035          1.0000   
         C         C         1.0       0.49374657722521276           0.8435885225921291 0.4310408274373407 1.0000   
         C         C         1.0       0.4785846544407521  0.7981667638477344  0.40440359193445496          1.0000   
         H         H         1.0       0.535610250195088   0.6941664386272101  0.38776838628679217          1.0000   
         H         H         1.0       0.5612265327807736  0.7806504221515529  0.43833329688827133          1.0000   
         H         H         1.0       0.4810587838057227  0.8855025048055116  0.44069635897537973          1.0000   
         H         H         1.0       0.4547653699073775  0.8004312594020041  0.39975217004853786          1.0000   
         C         C         1.0       0.5194193518675599  0.9693094233039409  0.3757833450894624 1.0000   
         C         C         1.0       0.5340612709362466  0.9653480471730681  0.42772861861297196          1.0000   
         C         C         1.0       0.5435994057663368  0.02030705083775497           0.44924044513508943          1.0000   
         C         C         1.0       0.5410044307080601  0.07435558693475164           0.4220373337627116 1.0000   
         C         C         1.0       0.5244040950757471  0.08015325860908407           0.3746630823400992 1.0000   
         C         C         1.0       0.5122687682220084  0.026362133636367302         0.35321688170442245          1.0000   
         C         C         1.0       0.5439506742609964  0.9012233584041288  0.4578977701365978 1.0000   
         C         C         1.0       0.5781403870038725  0.9012924849889866  0.43727958239297166          1.0000   
         C         C         1.0       0.6009934470455636  0.9249824644683046  0.4697559452459416 1.0000   
         C         C         1.0       0.6293064234719534  0.9368237278503623  0.4524160422027955 1.0000   
         C         C         1.0       0.6386335602719514  0.9182526252065737  0.40215909051161103          1.0000   
         C         C         1.0       0.616976861300056   0.889005852028817   0.3665080756029186 1.0000   
         C         C         1.0       0.5873151984889388  0.8822427087656262  0.38475694895223567          1.0000   
         C         C         1.0       0.5184039276339591  0.9337073719453086  0.5528653989352067 1.0000   
         C         C         1.0       0.5166155492368358  0.9324458262456331  0.6101020903294692 1.0000   
         C         C         1.0       0.5355154672324687  0.8939875943202383  0.6415326894423399 1.0000   
         C         C         1.0       0.5555849632520622  0.8564757152240385  0.6123589031163538 1.0000   
         C         C         1.0       0.5583858244192635  0.8592860569118379  0.5561151284500203 1.0000   
         C         C         1.0       0.5400702734520152  0.9000381497286746  0.5238975058255285 1.0000   
         C         C         1.0       0.5367130659079896  0.888184913345669   0.7110884132908749 1.0000   
         C         C         1.0       0.5850217056495952  0.06921790134856165           0.7287157815680526 1.0000   
         C         C         1.0       0.5550492198416314  0.06495875962252651           0.7323416882505803 1.0000   
         C         C         1.0       0.5397882593468621  0.01058886799569092           0.7283621204542173 1.0000   
         C         C         1.0       0.5557077828456707  0.9521285568773302  0.7215841295310526 1.0000   
         C         C         1.0       0.586306925185601   0.9554870968029946  0.7136265956339526 1.0000   
         C         C         1.0       0.6008129994987517  0.014691521466537738         0.7183089254562562 1.0000   
         C         C         1.0       0.5519855737279462  0.8226658766376421  0.72960627014066   1.0000   
         C         C         1.0       0.5355797784652043  0.7680532311417401  0.7187405347573429 1.0000   
         C         C         1.0       0.546775417387132   0.7098923135921342  0.7357200291017113 1.0000   
         C         C         1.0       0.5711591039862899  0.7037439553961945  0.7696176128944278 1.0000   
         C         C         1.0       0.5853134323192127  0.7593077073339171  0.7845918010625547 1.0000   
         C         C         1.0       0.5754745618424689  0.8165588348504826  0.7677903833899781 1.0000   
         C         C         1.0       0.5048766779526032  0.9111005980240572  0.7992713109847094 1.0000   
         C         C         1.0       0.4795432776190822  0.9224197470014139  0.8263230218546208 1.0000   
         C         C         1.0       0.4522847806211636  0.9074069857682382  0.802167822511042  1.0000   
         C         C         1.0       0.45295826524064653           0.8804561327303598 0.747994995631285  1.0000   
         C         C         1.0       0.4802159439463326  0.8743012093269104  0.7216766166690991 1.0000   
         C         C         1.0       0.5057409904769015  0.8933133543657854  0.7447805764695025 1.0000   
         H         H         1.0       0.5128760868005506  0.9265866075509254  0.35492246963085095          1.0000   
         H         H         1.0       0.5553733460627326  0.01755434853290816           0.4896940947100711 1.0000   
         H         H         1.0       0.5507770552880304  0.11782374176127153           0.4399844691290533 1.0000   
         H         H         1.0       0.501584530209388   0.02432298910181907           0.3124199170608896 1.0000   
         H         H         1.0       0.5985395160215585  0.936392279200908   0.5148058839217786 1.0000   
         H         H         1.0       0.6446635861078737  0.9587318317258459  0.48153086584781046          1.0000   
         H         H         1.0       0.6259978228294883  0.8755447533741253  0.3255455631035694 1.0000   
         H         H         1.0       0.5710787548933429  0.8657201924605987  0.3528933316660784 1.0000   
         H         H         1.0       0.5024857652791022  0.9639150795887643  0.5319086765149187 1.0000   
         H         H         1.0       0.5007550584127151  0.9640798357969197  0.6294889937342397 1.0000   
         H         H         1.0       0.5694645080445625  0.8229272012690957  0.631700561481406  1.0000   
         H         H         1.0       0.5746046447623221  0.8326042731760022  0.5359558935864912 1.0000   
         H         H         1.0       0.5391713399776225  0.09953711745201388           0.7427041263350551 1.0000   
         H         H         1.0       0.5156994252737512  0.014928069697285551         0.7323496771151977 1.0000   
         H         H         1.0       0.5984804400199132  0.9134018082689045  0.703815594664903  1.0000   
         H         H         1.0       0.6246596371220489  0.019192914125222282         0.7142604391306163 1.0000   
         H         H         1.0       0.516392048724611   0.7641649776984961  0.6924992232319043 1.0000   
         H         H         1.0       0.5347573911524466  0.6643865709834617  0.7235940349442148 1.0000   
         H         H         1.0       0.6019558157633061  0.7545750115236631  0.8156403077007245 1.0000   
         H         H         1.0       0.5865690186259954  0.8571523109297055  0.7844434537065448 1.0000   
         H         H         1.0       0.5262418324250617  0.915381140133591   0.8246681056489633 1.0000   
         H         H         1.0       0.48118189871528466           0.9410545469669139 0.8686833225453199 1.0000   
         H         H         1.0       0.4326858058984675  0.8703970587372114  0.7254100728976323 1.0000   
         H         H         1.0       0.47988836007201    0.8562449294066009  0.6798339120430721 1.0000   
         C         C         1.0       0.5578941125752098  0.6236020481054029  0.8463156171820291 1.0000   
         C         C         1.0       0.5780136904164702  0.6372229297526357  0.7968881477081224 1.0000   
         H         H         1.0       0.5594599483900546  0.5730954968211212  0.8593518698724202 1.0000   
         H         H         1.0       0.5333281074739826  0.6251346247431225  0.8378322361743147 1.0000   
         H         H         1.0       0.5746309983678279  0.5991041386867623  0.7660279015401399 1.0000   
         H         H         1.0       0.6015163532606186  0.6305124787653165  0.8095770640913549 1.0000   
         C         C         1.0       0.5234531650983874  0.14744048745010252           0.347270375981648  1.0000   
         C         C         1.0       0.549854840932012   0.15774879531023944           0.30753665337196107          1.0000   
         H         H         1.0       0.5198709411414548  0.18633135570663906           0.3760190695850416 1.0000   
         H         H         1.0       0.5043657560361111  0.15625193967876005           0.31925956133504807          1.0000   
         H         H         1.0       0.5712014794507303  0.14501805298587733           0.32787295109402376          1.0000   
         H         H         1.0       0.5507933603303812  0.2098534695733103  0.30033610029798324          1.0000   
         C         C         1.0       0.409370211554088   0.8660527266157131  0.8633961305900538 1.0000   
         C         C         1.0       0.42313438773760165           0.9223020373837909 0.8322117390674396 1.0000   
         H         H         1.0       0.4282807096458631  0.8386664288820893  0.8859111686353427 1.0000   
         H         H         1.0       0.3999805328132972  0.8318757856170598  0.8334681938777053 1.0000   
         H         H         1.0       0.4053448753054344  0.9427365962626445  0.8021918936849769 1.0000   
         H         H         1.0       0.4275706806178019  0.9600330996500678  0.8617162698020834 1.0000   
         C         C         1.0       0.3062039131664455  0.5890317523297858  0.3454501366235787 1.0000   
         C         C         1.0       0.3173041624126798  0.5842715831592401  0.2854732774274762 1.0000   
         H         H         1.0       0.3172994498585998  0.5536616855800409  0.37682919815530513          1.0000   
         H         H         1.0       0.2818716894365363  0.5813794421208927  0.3488629961538412 1.0000   
         H         H         1.0       0.3143099472579397  0.5334400503394542  0.2790120470747155 1.0000   
         H         H         1.0       0.3419054732640063  0.5977471870974234  0.28193642193691515          1.0000   
         C         C         1.0       0.26324203967194654           0.08289863140651055          0.8186741412255375 1.0000   
         C         C         1.0       0.2898884687412762  0.08397192604036063           0.7761418537726562 1.0000   
         H         H         1.0       0.24337784380590355           0.06650271075386582          0.7949765697250735 1.0000   
         H         H         1.0       0.2579193136772285  0.13435803754438047           0.8324725309307404 1.0000   
         H         H         1.0       0.31059459239765985           0.10794512078261365          0.7961679573403081 1.0000   
         H         H         1.0       0.2841895604025838  0.11731470093271845           0.7402913259910319 1.0000   
         C         C         1.0       0.4182139576665491  0.9629429380240468  0.3137081211880441 1.0000   
         C         C         1.0       0.4178444794249838  0.9214140166071925  0.2615639710253945 1.0000   
         H         H         1.0       0.41645213677738446           0.012838351194251807         0.3071040323312734 1.0000   
         H         H         1.0       0.44276018581268234           0.9610152138069392 0.3312801519246189 1.0000   
         H         H         1.0       0.4210803502061558  0.8696577764830284  0.27176041330089873          1.0000   
         H         H         1.0       0.3964517305248805  0.9214602279886924  0.24123300977379264          1.0000   
         C         C         1.0       0.132510717003951   0.8468226394893379  0.2646229983701791 1.0000   
         C         C         1.0       0.1454917839917873  0.7750558456980265  0.26644465821253993          1.0000   
         H         H         1.0       0.15138766908538104           0.8790911724152107 0.2700903198612554 1.0000   
         H         H         1.0       0.12117312573509698           0.8554359362235733 0.30767745396401724          1.0000   
         H         H         1.0       0.128245073738662   0.740029504222581   0.256679946681287  1.0000   
         H         H         1.0       0.1514953428469703  0.7640482965522287  0.3114692043952938 1.0000   
         C         C         1.0       0.17522614501780143           0.7760118700360741 0.701734769597634  1.0000   
         C         C         1.0       0.16032675314118805           0.8384023362338038 0.7164987433516993 1.0000   
         H         H         1.0       0.16621330694263947           0.7479367513701671 0.6652252262220809 1.0000   
         H         H         1.0       0.1697551870458771  0.7390819098841159  0.7342956624589619 1.0000   
         H         H         1.0       0.17257072950459573           0.8709798443224863 0.7442896833212433 1.0000   
         H         H         1.0       0.1415067918575974  0.8310663757106516  0.7446308941042595 1.0000   
         C         C         1.0       0.020273110447134757          0.6248272443316529 0.2195123530205263 1.0000   
         C         C         1.0       0.9966691541514207  0.6536798507371414  0.18102445776685316          1.0000   
         H         H         1.0       0.0401419148216533  0.6191620310406014  0.19366968928022543          1.0000   
         H         H         1.0       0.012582568198826527          0.5771857310588543 0.23601068918609713          1.0000   
         H         H         1.0       0.9758553853667997  0.6603399018477448  0.2046693616467592 1.0000   
         H         H         1.0       0.9905393433705283  0.6206222828255786  0.1467214191522681 1.0000   
         C         C         1.0       0.08359977103840022           0.1577120827617502 0.6984845010461761 1.0000   
         C         C         1.0       0.10677022094347377           0.14927685596475437          0.7466148360598851 1.0000   
         H         H         1.0       0.059755504163598205          0.15283105611111036          0.7149523785327392 1.0000   
         H         H         1.0       0.08568204043844574           0.20767273167828537          0.6823386383565867 1.0000   
         H         H         1.0       0.1079235628366848  0.18964980951404087           0.7753677335350834 1.0000   
         H         H         1.0       0.12970588949376838           0.15422844738633823          0.7258829447309745 1.0000   
         C         C         1.0       0.6832058771930453  0.9970369307929344  0.3826596115942091 1.0000   
         C         C         1.0       0.66950185764563    0.9287815457514531  0.37661879172172985          1.0000   
         H         H         1.0       0.6680510252610637  0.034119274834650604         0.374882678571207  1.0000   
         H         H         1.0       0.6988630655878315  0.00261153926021529           0.3461782038811463 1.0000   
         H         H         1.0       0.6853333579522561  0.8916886814665836  0.39276873674369955          1.0000   
         H         H         1.0       0.6684904862828711  0.9163322525014432  0.3327912219173569 1.0000   
         C         C         1.0       0.0012196921609430866         0.9575637132106468 0.6152876369949122 1.0000   
         C         C         1.0       0.9948646303222672  0.9040432371731133  0.6585469753148033 1.0000   
         H         H         1.0       0.009947819246388878          0.0027885361481907456        0.6294988607816219 1.0000   
         H         H         1.0       0.021257292317474308          0.9432718207465802 0.5852997824181219 1.0000   
         H         H         1.0       0.9976937057794271  0.8552800135896064  0.6419204638640124 1.0000   
         H         H         1.0       0.970752095344437   0.9040801725479475  0.6681767214377037 1.0000   
         C         C         1.0       0.7039438071193906  0.850951375734489   0.8135059086865827 1.0000   
         C         C         1.0       0.674160555673428   0.8844582217183631  0.8233335713798619 1.0000   
         H         H         1.0       0.7082628412830767  0.8462718231229348  0.7671369550174084 1.0000   
         H         H         1.0       0.7039814309033571  0.8018345299676487  0.830937843912185  1.0000   
         H         H         1.0       0.6586807510544824  0.8825582953943889  0.7860853997340159 1.0000   
         H         H         1.0       0.677410226198674   0.9369187851152546  0.8326424621668358 1.0000   
         C         C         1.0       0.9034253475285453  0.7899709248241609  0.7970431263322211 1.0000   
         C         C         1.0       0.929807205190441   0.8219907350518436  0.7658224046537251 1.0000   
         H         H         1.0       0.8940306367922313  0.7539490597119572  0.7719962300165695 1.0000   
         H         H         1.0       0.9130053412650866  0.7667735351958065  0.8344900135876876 1.0000   
         H         H         1.0       0.9494144020927959  0.7893051500495024  0.7568590853381045 1.0000   
         H         H         1.0       0.9409898611135942  0.8614870385509212  0.7898814062946948 1.0000   
         C         C         1.0       0.7724936290851437  0.21493435942219685           0.29617030555753654          1.0000   
         C         C         1.0       0.748114280480268   0.1796918664706013  0.26147964198671697          1.0000   
         H         H         1.0       0.7647129956966613  0.26411401730307205           0.30387981541919623          1.0000   
         H         H         1.0       0.7946938872627277  0.22051686277831695           0.27473081288356066          1.0000   
         H         H         1.0       0.7312621104519383  0.15572671862298915           0.2883590734889633 1.0000   
         H         H         1.0       0.7317680667463633  0.21002692446136084           0.23907686881065093          1.0000   
         C         C         1.0       0.9133867547620703  0.8963600373102864  0.24633245233515844          1.0000   
         C         C         1.0       0.9235355123923268  0.9230109172854573  0.3043894602493028 1.0000   
         H         H         1.0       0.9305575662085275  0.9039213942441411  0.21807068614485317          1.0000   
         H         H         1.0       0.9118597832152097  0.8437923337730758  0.2521926236682839 1.0000   
         H         H         1.0       0.9059105141282126  0.9314415633995309  0.33620651091564924          1.0000   
         H         H         1.0       0.9334742629458999  0.9720918816818539  0.2992890119399522 1.0000   
         C         C         1.0       0.6585310681933099  0.6721211139543515  0.18469580896726012          1.0000   
         C         C         1.0       0.6756592758978723  0.6224261025489108  0.15007865054734792          1.0000   
         H         H         1.0       0.6760058177548312  0.6959330535812193  0.20761185509862734          1.0000   
         H         H         1.0       0.6449353271256502  0.6498534087681752  0.21784314036111996          1.0000   
         H         H         1.0       0.686764142158085   0.6405099138309451  0.11000545496159386          1.0000   
         H         H         1.0       0.6956261980493098  0.6078178631641658  0.1719768890010862 1.0000   
         C         C         1.0       0.4517585120462044  0.18206487740719246           0.9165238391139793 1.0000   
         C         C         1.0       0.47522730696895593           0.13219642223609251          0.9037521795745819 1.0000   
         H         H         1.0       0.42969237854000525           0.16611709195820068          0.9363398684939145 1.0000   
         H         H         1.0       0.44524331730489547           0.2025210563861115 0.8744832435030716 1.0000   
         H         H         1.0       0.49415691357171304           0.14768090927716582          0.8774731644881281 1.0000   
         H         H         1.0       0.4648438030128272  0.09885114216789613           0.8729760987030392 1.0000   
         C         C         1.0       0.4531893651150618  0.6470988642338635  0.379303263616622  1.0000   
         C         C         1.0       0.4748165220646524  0.6973506080375745  0.3502979460866015 1.0000   
         H         H         1.0       0.446171562229885   0.6078791266291825  0.34883120735322426          1.0000   
         H         H         1.0       0.43128829249613676           0.671441937885092  0.38686469699284737          1.0000   
         H         H         1.0       0.4638122042540325  0.7225818222181978  0.31381030119730013          1.0000   
         H         H         1.0       0.49195848060057445           0.6722837105160555 0.327471272587642  1.0000   
         C         C         1.0       0.6028150445859638  0.1321332477129291  0.7411991637519473 1.0000   
         C         C         1.0       0.5868776803224988  0.20054220269085465           0.7405737650655433 1.0000   
         H         H         1.0       0.614926266634578   0.12877405467598702           0.7824052832269588 1.0000   
         H         H         1.0       0.6214697845438608  0.1346224791724866  0.7083609176707811 1.0000   
         H         H         1.0       0.6022664354503454  0.23962645528505133           0.7533821448011312 1.0000   
         H         H         1.0       0.5682601757167939  0.19635432875657322           0.7717122538059324 1.0000   
         C         C         1.0       0.4688143886793276  0.6614671441729361  0.8021627746890521 1.0000   
         C         C         1.0       0.44846926418860406           0.6229437205488625 0.8440436039218006 1.0000   
         H         H         1.0       0.4581531043231322  0.7055189237383899  0.7940349757100926 1.0000   
         H         H         1.0       0.4910835925896908  0.6741366610376058  0.8201846261210798 1.0000   
         H         H         1.0       0.4306765181474745  0.6040740830815836  0.8188631978245099 1.0000   
         H         H         1.0       0.43820053552380783           0.6562405125443665 0.8765611498530872 1.0000   
         C         C         1.0       0.6297594383351001  0.28043409192685753           0.35346953009415066          1.0000   
         C         C         1.0       0.6284634874572304  0.23227180994575874           0.3033507373734545 1.0000   
         H         H         1.0       0.6482969498408224  0.28222973434361665           0.3851507586334699 1.0000   
         H         H         1.0       0.633534614169952   0.3299247685737187  0.34101436533688634          1.0000   
         H         H         1.0       0.6123490983929502  0.19379460411041713           0.30628821569766884          1.0000   
         H         H         1.0       0.6485251752821769  0.20480560619865246           0.2995311940773948 1.0000   
         C         C         1.0       0.22471920655040045           0.5493976360604967 0.8685065800382995 1.0000   
         C         C         1.0       0.2443625155508535  0.6059280500014987  0.8918049248206862 1.0000   
         H         H         1.0       0.21953868443163874           0.5552384722811331 0.8223481769222668 1.0000   
         H         H         1.0       0.2018625357408117  0.5537554455404783  0.8837255775512863 1.0000   
         H         H         1.0       0.23670843605299546           0.6464665770713298 0.8648042759509118 1.0000   
         H         H         1.0       0.26728246367121283           0.6044343354525136 0.8761252527021145 1.0000   
         C         C         1.0       0.35621370110756806           0.09048511093263278          0.20865691612910764          1.0000   
         C         C         1.0       0.3337017854624256  0.12660047926931983           0.2444952648928298 1.0000   
         H         H         1.0       0.3696032354133135  0.058461443913723876         0.23603329506119697          1.0000   
         H         H         1.0       0.37421466355415756           0.12367614588267317          0.1955286136603851 1.0000   
         H         H         1.0       0.34465600404900815           0.13648348765349083          0.28648142435445534          1.0000   
         H         H         1.0       0.3148578988352449  0.09727626163341396           0.25762044617853785          1.0000   
         C         C         1.0       0.38791222142409043           0.5857777317997234 0.17115405978527054          1.0000   
         C         C         1.0       0.40283722720854115           0.593090993707565  0.11300599003598566          1.0000   
         H         H         1.0       0.3756431491063141  0.6303106669751414  0.18149786193017925          1.0000   
         H         H         1.0       0.40349587340703286           0.5784503073508203 0.2057728682036306 1.0000   
         H         H         1.0       0.3877412929097137  0.599189123708859   0.08112744400201666          1.0000   
         H         H         1.0       0.41723891737664254           0.6357373787725492 0.1122884157952666 1.0000   
         C         C         1.0       0.39182058206569487           0.5967135998481589 0.6666310110896247 1.0000   
         C         C         1.0       0.38983726908369876           0.6264236741205212 0.7276056320075704 1.0000   
         H         H         1.0       0.41022323666480753           0.5589350480928345 0.6712665348362218 1.0000   
         H         H         1.0       0.39967915313982527           0.6342872551472174 0.6377399694521934 1.0000   
         H         H         1.0       0.41049945885079053           0.6422858077470498 0.7408219868846512 1.0000   
         H         H         1.0       0.3833817991391091  0.5900984076371549  0.7596617346002101 1.0000   
         C         C         1.0       0.2207561020022087  0.06200637976512047           0.5254813637031953 1.0000   
         C         C         1.0       0.22828700200996016           0.9920205706302611 0.5367473086048624 1.0000   
         H         H         1.0       0.20077846458328893           0.07270550661540764          0.5511367977798554 1.0000   
         H         H         1.0       0.2133490478056383  0.0670009472923272  0.4813937942254962 1.0000   
         H         H         1.0       0.20693299448033262           0.9694502306787277 0.5277230249081561 1.0000   
         H         H         1.0       0.23259475301236077           0.982471799706767  0.5799803791837829 1.0000   
         C         C         1.0       0.3848568428693574  0.17705275765107203           0.7966430273137918 1.0000   
         C         C         1.0       0.3782685735789835  0.22406967958671592           0.8433175974053579 1.0000   
         H         H         1.0       0.3793440823226585  0.12762038596528558           0.8080557666545538 1.0000   
         H         H         1.0       0.41129655049903374           0.17784540756160366          0.7932462753200955 1.0000   
         H         H         1.0       0.3838169907768965  0.2721410418823931  0.82835494668124   1.0000   
         H         H         1.0       0.3926693808050454  0.21412738089526373           0.8787009023283676 1.0000   
         C         C         1.0       0.21657561658346425           0.5511516030023829 0.3627313309168708 1.0000   
         C         C         1.0       0.20489889585033402           0.4964657392279216 0.3257785895660934 1.0000   
         H         H         1.0       0.19750199681555874           0.5816291973194686 0.3762164055528284 1.0000   
         H         H         1.0       0.2279488004604018  0.5870467327792175  0.3362308970684718 1.0000   
         H         H         1.0       0.19430290966175842           0.4582160442488877 0.35180047266077147          1.0000   
         H         H         1.0       0.1847726917249687  0.5193498939951336  0.3051330589166339 1.0000   
         C         C         1.0       0.41897438658644565           0.14340540163466842          0.41100233484918747          1.0000   
         C         C         1.0       0.45037226254471463           0.12350779445174796          0.43297546836856077          1.0000   
         H         H         1.0       0.410672706048814   0.10192362795803467           0.38596604315734945          1.0000   
         H         H         1.0       0.4220944215846658  0.17567755801031845           0.37740425825585094          1.0000   
         H         H         1.0       0.45037880514930334           0.0815124649061818 0.4559617381768118 1.0000   
         H         H         1.0       0.46443582223026536           0.11420658708051135          0.3963886215434171 1.0000   
         C         C         1.0       0.14726526259769357           0.6317904437602173 0.8183939627391823 1.0000   
         C         C         1.0       0.15777289221180402           0.6959170629378557 0.8445342975527111 1.0000   
         H         H         1.0       0.16833821665692583           0.6082110356610733 0.8059803481504607 1.0000   
         H         H         1.0       0.13344333596401903           0.6468730628089996 0.7805956982847843 1.0000   
         H         H         1.0       0.17596182062330867           0.717489935597927  0.8205708661479602 1.0000   
         H         H         1.0       0.16947801379909877           0.6884626069551594 0.8834216257128208 1.0000   
         C         C         1.0       0.9707370718170311  0.1848825520647055  0.1496428922329065 1.0000   
         C         C         1.0       0.9631516429805612  0.11688209750442202           0.13102987066954386          1.0000   
         H         H         1.0       0.983594742160327   0.18234199551897579           0.18761076318284964          1.0000   
         H         H         1.0       0.9502240430961819  0.21401536768746565           0.15726156709439798          1.0000   
         H         H         1.0       0.9473539720207352  0.12178330990463482           0.09491957581863097          1.0000   
         H         H         1.0       0.9505400920379456  0.09453536581889121           0.16671172337459916          1.0000   
         C         C         1.0       0.14934462141354876           0.08979686530859965          0.9398238960488632 1.0000   
         C         C         1.0       0.1742802410430233  0.09935407564261212           0.8966896142578841 1.0000   
         H         H         1.0       0.1587775067650894  0.07869634272458792           0.9806078318826674 1.0000   
         H         H         1.0       0.14068233683527764           0.04351298342456422          0.9301819711089412 1.0000   
         H         H         1.0       0.1649814455160723  0.10161904222229978           0.8549783900084869 1.0000   
         H         H         1.0       0.18768521743427136           0.056045078581883574         0.8971934932978437 1.0000   
         C         C         1.0       0.9648663787005072  0.5887740679336687  0.6169749439321022 1.0000   
         C         C         1.0       0.9908894816809306  0.6353978537653585  0.6299560285366482 1.0000   
         H         H         1.0       0.9495211989606541  0.6114914945690272  0.5887574707657096 1.0000   
         H         H         1.0       0.951908380342713   0.5879903805280646  0.6540140167866575 1.0000   
         H         H         1.0       0.011978848220563165          0.6085993885007619 0.6445378854511797 1.0000   
         H         H         1.0       0.9839815045813985  0.6646567659113489  0.6671713896452369 1.0000   
         C         C         1.0       0.18050731059707825           0.17267364517484912          0.39361574185343495          1.0000   
         C         C         1.0       0.16717189320861103           0.12187384238592913          0.3558102944409135 1.0000   
         H         H         1.0       0.19854717809948985           0.19661196008563753          0.3690414070179834 1.0000   
         H         H         1.0       0.19212152083728262           0.15216427706916558          0.43063788615967413          1.0000   
         H         H         1.0       0.18653589624556743           0.09776585919696323          0.3362721536149657 1.0000   
         H         H         1.0       0.15454401186117073           0.14380281477099754          0.32294005763718603          1.0000   
         C         C         1.0       0.1694739020680478  0.568619291842016   0.6760398967062656 1.0000   
         C         C         1.0       0.15483777654059394           0.5901515643333003 0.6204268364631662 1.0000   
         H         H         1.0       0.15494920763774123           0.5313717084959967 0.6937529588862846 1.0000   
         H         H         1.0       0.17495239841877686           0.6052503444857698 0.7083526843477297 1.0000   
         H         H         1.0       0.17087094599839836           0.6186932045666077 0.5952580799043203 1.0000   
         H         H         1.0       0.13776805860464147           0.6240561629142443 0.631426991686445  1.0000   
         C         C         1.0       0.9649661189839495  0.13032809932133693           0.7258428541152502 1.0000   
         C         C         1.0       0.9936143171976518  0.10740465917619481           0.7514516745461384 1.0000   
         H         H         1.0       0.9505563011277789  0.15364063229687042           0.7593578714879593 1.0000   
         H         H         1.0       0.9495278755337805  0.09247361436430745           0.7169445018281286 1.0000   
         H         H         1.0       0.014104961288488038          0.1065023283696065 0.7237990702855773 1.0000   
         H         H         1.0       0.987229865379014   0.05694847198664555           0.7616566325875516 1.0000   
         C         C         1.0       0.10834325582480986           0.5260232006212423 0.20988247329129361          1.0000   
         C         C         1.0       0.09316417562392232           0.5534460398884127 0.26009458042757805          1.0000   
         H         H         1.0       0.1338236702155582  0.5365109554309926  0.2028978988905723 1.0000   
         H         H         1.0       0.10913123197032726           0.47297693033909777          0.21409439110824025          1.0000   
         H         H         1.0       0.06927319812132016           0.5472499029974683 0.24809895194377085          1.0000   
         H         H         1.0       0.0951083454131525  0.6060556966468209  0.2576545033068802 1.0000   
         C         C         1.0       0.7149608135244434  0.7307905019448959  0.043651622712375104         1.0000   
         C         C         1.0       0.7146650110799248  0.8021267794009708  0.029121788094056855         1.0000   
         H         H         1.0       0.6934871923054361  0.7055416355927369  0.04197147659635658          1.0000   
         H         H         1.0       0.7223319375215282  0.7314700458234993  0.08823963715620975          1.0000   
         H         H         1.0       0.6909012412685888  0.8140677856546487  0.03906994558248922          1.0000   
         H         H         1.0       0.7164784015561575  0.8061956604394666  0.9824459245381112 1.0000   
         C         C         1.0       0.8684314104825952  0.19283189900972308           0.7594338538619315 1.0000   
         C         C         1.0       0.8802262542630999  0.2550401057431657  0.7873443825199692 1.0000   
         H         H         1.0       0.8880845586684661  0.17663495308401433           0.7301231631498183 1.0000   
         H         H         1.0       0.8513881958699449  0.20299444065128336           0.7254068344268344 1.0000   
         H         H         1.0       0.8888851810804359  0.28813835977348434           0.75401270928555   1.0000   
         H         H         1.0       0.8993465680898034  0.2485274548761005  0.8155943915091312 1.0000   
         C         C         1.0       0.6547961537738435  0.2338560265054513  0.9003109006830847 1.0000   
         C         C         1.0       0.6592738574630438  0.2784876777651257  0.8512232964924235 1.0000   
         H         H         1.0       0.6743210169561996  0.19867982342044196           0.9059153024012171 1.0000   
         H         H         1.0       0.6358665760209475  0.20602929626792346           0.886434154129803  1.0000   
         H         H         1.0       0.6417757972182314  0.3137974053740818  0.851220889603574  1.0000   
         H         H         1.0       0.6576407230701704  0.25681728680065585           0.8110005616968393 1.0000   
         C         C         1.0       0.9340544783107114  0.7095765116473242  0.012075642112282292         1.0000   
         C         C         1.0       0.9642140376799626  0.712702536880522   0.9736543102045744 1.0000   
         H         H         1.0       0.9343376771549872  0.7577289612981997  0.033073571495443765         1.0000   
         H         H         1.0       0.9379820971471161  0.6765577610830231  0.046726410963039866         1.0000   
         H         H         1.0       0.9575393336342959  0.7154527350498844  0.9303432469995048 1.0000   
         H         H         1.0       0.9736763690090475  0.7609317701138893  0.9834435056185771 1.0000   
         C         C         1.0       0.856163490765598   0.7094500134171631  0.3614970525827056 1.0000   
         C         C         1.0       0.8346624500811197  0.7631120997431596  0.37190323924430163          1.0000   
         H         H         1.0       0.8748976057984157  0.710230173591148   0.39486478276885545          1.0000   
         H         H         1.0       0.8637462561759001  0.7183190565671961  0.3201129289228936 1.0000   
         H         H         1.0       0.8124885151199993  0.7423141719287925  0.38429714824040456          1.0000   
         H         H         1.0       0.8272884247505053  0.7839842277680322  0.3300272748027886 1.0000   
         C         C         1.0       0.7334473385075716  0.30847235373808374           0.707215180047462  1.0000   
         C         C         1.0       0.7608312400270787  0.2642555942729701  0.7124924469988965 1.0000   
         H         H         1.0       0.7282123338232295  0.32549240920122613           0.7482829160781973 1.0000   
         H         H         1.0       0.7154743861193832  0.27996222697127987           0.6887651080617209 1.0000   
         H         H         1.0       0.7549108012461856  0.22796812196777783           0.7459535307653946 1.0000   
         H         H         1.0       0.7805407408964781  0.28708174070913506           0.7294886404682027 1.0000   
         C         C         1.0       0.638498651067051   0.7208746311788121  0.5536538853204964 1.0000   
         C         C         1.0       0.6158933474198982  0.726505059114978   0.6021505780955537 1.0000   
         H         H         1.0       0.6493345118111407  0.7688167311121448  0.5466046286041377 1.0000   
         H         H         1.0       0.6278699807689848  0.7111307124418177  0.5120984220713193 1.0000   
         H         H         1.0       0.6092276733942164  0.7770755608685783  0.6026691542967125 1.0000   
         H         H         1.0       0.626283855435683   0.7261998880315463  0.6448507989365652 1.0000   
         C         C         1.0       0.8293030656916772  0.7670937150625986  0.6907228539328839 1.0000   
         C         C         1.0       0.7985935489104958  0.7773479492405987  0.6620041901193282 1.0000   
         H         H         1.0       0.8411084898899298  0.8147170799108323  0.6988082549502156 1.0000   
         H         H         1.0       0.8448896908308582  0.7412587743621765  0.664570265322721  1.0000   
         H         H         1.0       0.7997898461497602  0.8095103216896531  0.6256297052937612 1.0000   
         H         H         1.0       0.782052556026182   0.8038435440962857  0.6890027615761221 1.0000   
         C         C         1.0       0.7338983866695189  0.3429301791520873  0.1789092414079183 1.0000   
         C         C         1.0       0.7541377090863025  0.29864791066884117           0.14291969076885683          1.0000   
         H         H         1.0       0.7146834842314103  0.3133436878210669  0.19457000531549543          1.0000   
         H         H         1.0       0.7209267854718405  0.37493277438224626           0.15234651368525443          1.0000   
         H         H         1.0       0.739976171447597   0.2500482187452351  0.13794599598787705          1.0000   
         H         H         1.0       0.7752119922716476  0.28320670696723504           0.16735848349054794          1.0000   
         C         C         1.0       0.8718354592088791  0.2219336995897757  0.377108473131595  1.0000   
         C         C         1.0       0.8866362093306346  0.199813121997176   0.4357185834555905 1.0000   
         H         H         1.0       0.8910580127565055  0.22501417797333204           0.3487953293829246 1.0000   
         H         H         1.0       0.8583122311278317  0.18109548372503437           0.3607938397857565 1.0000   
         H         H         1.0       0.8952585343169677  0.15181025905495016           0.4342735802385754 1.0000   
         H         H         1.0       0.8696250271598603  0.2068335483800084  0.46876634984915616          1.0000

