data_0
_chemical_formula_structural 
                                        C6H4C38H24C6H4C38H24C6H4C38H24C6H4C38H24C6H4C38H24C6H4C38H24C6H4C38H24C6H4C38H24C6H4C38H24C6H4C38H24C6H4C38H24C6H4C38H24C6H4C38H24C6H4C38H24C6H4C38H24C6H4C38H24C6H4C38H24C6H4C38H24C6H4C38H24C6H4C38H24C6H4C38H24C6H4C38H24C6H4C38H24C6H4C38H24C6H4C38H24C6H4C38H24C6H4C38H24C6H4C38H24C6H4C38H24C6H4C38H24C6H4C38H24C6H4C38H24C6H4C38H24C6H4C38H24C6H4C38H24C6H4C38H24C2H4C2H4C2H4C2H4C2H4C2H4C2H4C2H4C2H4C2H4C2H4C2H4C2H4C2H4C2H4C2H4C2H4C2H4C2H4C2H4C2H4C2H4C2H4C2H4C2H4C2H4C2H4C2H4C2H4C2H4C2H4C2H4C2H4C2H4C2H4C2H4C2H4C2H4C2H4C2H4C2H4C2H4C2H4C2H4C2H4C2H4C2H4C2H4C2H4C2H4C2H4C2H4C2H4C2H4C2H4C2H4C2H4C2H4C2H4C2H4C2H4C2H4C2H4C2H4C2H4C2H4C2H4C2H4C2H4C2H4C2H4C2H4C2H4C2H4C2H4C2H4C2H4C2H4C2H4C2H4C2H4C2H4C2H4C2H4C2H4C2H4C2H4C2H4C2H4C2H4C2H4C2H4C2H4C2H4C2H4C2H4C2H4C2H4C2H4C2H4C2H4C2H4C2H4C2H4C2H4C2H4C2H4C2H4
_chemical_formula_sum                   'C1800 H1440'
_cell_length_a                          70.81005189543637
_cell_length_b                          70.6444443819894
_cell_length_c                          31.684603667416535
_cell_angle_alpha                       90.4160251534248
_cell_angle_beta                        89.7180866979237
_cell_angle_gamma                       120.43162848387678
_space_group_name_H-M_alt               'P 1'
_space_group_IT_number                  1
loop_
  _space_group_symop_operation_xyz
         'x, y, z' 
loop_
  _atom_site_type_symbol
  _atom_site_label
  _atom_site_symmetry_multiplicity
  _atom_site_fract_x
  _atom_site_fract_y
  _atom_site_fract_z
  _atom_site_occupancy
         C         C         1.0       0.15826560382923383           0.6901932863933065 0.2968445342041778 1.0000   
         C         C         1.0       0.17915872321337847           0.7015718349932744 0.2790927224921387 1.0000   
         C         C         1.0       0.18639321059385758           0.7225752654165306 0.2631853382092026 1.0000   
         C         C         1.0       0.17214894500538233           0.7304742733177397 0.2604576174519047 1.0000   
         C         C         1.0       0.15160955993955802           0.7187904230730523 0.2775778027141261 1.0000   
         C         C         1.0       0.14481273921289156           0.6990847112791274 0.2969752474871696 1.0000   
         H         H         1.0       0.19028286185152185           0.6955245144520988 0.2812095054418263 1.0000   
         H         H         1.0       0.2033862305728965  0.7334738503030855  0.25605787137267444          1.0000   
         H         H         1.0       0.14119517580252658           0.7256849598382619 0.2749572783882959 1.0000   
         H         H         1.0       0.12844820890209957           0.6902521226084763 0.309966117749146  1.0000   
         C         C         1.0       0.14598662491398165           0.7481737580644893 0.20552774408037258          1.0000   
         C         C         1.0       0.16413518294768292           0.7624898408975873 0.22886411807111437          1.0000   
         C         C         1.0       0.16817444171583965           0.7837001188976045 0.2342239734850379 1.0000   
         C         C         1.0       0.15472715675723078           0.7905994487577003 0.21889996446800633          1.0000   
         C         C         1.0       0.1377846796775157  0.7767949142919741  0.1942543879243956 1.0000   
         C         C         1.0       0.1325472071811314  0.7549884656622495  0.18822982353853832          1.0000   
         C         C         1.0       0.1810093364539812  0.7551771558092429  0.24314534645184657          1.0000   
         C         C         1.0       0.19355655430289043           0.7576074967818116 0.19979290751798282          1.0000   
         C         C         1.0       0.20762936926513076           0.7783049275315711 0.1838832443810394 1.0000   
         C         C         1.0       0.21389105906196698           0.780759533948482  0.1428641713225601 1.0000   
         C         C         1.0       0.20936080132402127           0.7622748812339062 0.11968262366468688          1.0000   
         C         C         1.0       0.1954101609475757  0.742232032675599   0.13324278259428682          1.0000   
         C         C         1.0       0.18605061792477265           0.7388322771610059 0.17248725502558293          1.0000   
         C         C         1.0       0.1861155577220221  0.7713083189287036  0.31891322166153907          1.0000   
         C         C         1.0       0.19870310473464087           0.7822773285697265 0.35411821508182656          1.0000   
         C         C         1.0       0.22112969608661026           0.7913400515244916 0.352627276388566  1.0000   
         C         C         1.0       0.23037117812865174           0.7883512383882271 0.31674318463007556          1.0000   
         C         C         1.0       0.21766062967048194           0.7779109394653297 0.2819443864302733 1.0000   
         C         C         1.0       0.19556553647339697           0.7700966589982713 0.28202969288102125          1.0000   
         C         C         1.0       0.23617841700608325           0.8079690815577566 0.3885294082990041 1.0000   
         C         C         1.0       0.21824452555324586           0.8570163146497399 0.3603968967185126 1.0000   
         C         C         1.0       0.20884446300200254           0.8441284324020649 0.396220823256611  1.0000   
         C         C         1.0       0.21368029760106502           0.827971631292054  0.40444804382435173          1.0000   
         C         C         1.0       0.23038622372713585           0.827227934662949  0.3821359215865261 1.0000   
         C         C         1.0       0.23827256776317807           0.8395075477942854 0.3455441401859421 1.0000   
         C         C         1.0       0.23172133055157473           0.85432648001819   0.3340864274779651 1.0000   
         C         C         1.0       0.2628305724902686  0.8182573711061141  0.3874829128399102 1.0000   
         C         C         1.0       0.2708990966491947  0.804091570725442   0.3846422229001963 1.0000   
         C         C         1.0       0.29283478693426146           0.8119912034044924 0.38661859235908635          1.0000   
         C         C         1.0       0.3071591349983188  0.8344582837604773  0.387801482798739  1.0000   
         C         C         1.0       0.29958444637078996           0.848791001880738  0.3926363888754432 1.0000   
         C         C         1.0       0.2779118908060939  0.8404463753794518  0.392628883210519  1.0000   
         C         C         1.0       0.23654174173206255           0.8104407171190613 0.47085277953109594          1.0000   
         C         C         1.0       0.22999229166878393           0.8020353234935652 0.5099446208044924 1.0000   
         C         C         1.0       0.21940614692008165           0.7790643815446698 0.516163239535823  1.0000   
         C         C         1.0       0.2149197346034523  0.7660153727402988  0.48160626560785136          1.0000   
         C         C         1.0       0.22120758744384805           0.775774290070376  0.4420361789072102 1.0000   
         C         C         1.0       0.23067212997546513           0.7980531222800198 0.4356617719357523 1.0000   
         H         H         1.0       0.14305918596057388           0.7321611249462243 0.19756847504802943          1.0000   
         H         H         1.0       0.182901456866613   0.7958061259901337  0.2482404571157935 1.0000   
         H         H         1.0       0.15902310416380808           0.8073083613083593 0.22852335213187497          1.0000   
         H         H         1.0       0.11901725052655289           0.7438508197211343 0.16908945786659813          1.0000   
         H         H         1.0       0.21358527758400897           0.7930565892323757 0.20218093679169058          1.0000   
         H         H         1.0       0.2252375259167277  0.7971069086170804  0.1328770152018336 1.0000   
         H         H         1.0       0.19162090605265816           0.7276907475106008 0.11744347435468538          1.0000   
         H         H         1.0       0.17399897897840993           0.7212557353259724 0.18223784219187505          1.0000   
         H         H         1.0       0.16798657324367225           0.762844231856114  0.3207505468783707 1.0000   
         H         H         1.0       0.1899677793990956  0.7825929005261961  0.3821298935781616 1.0000   
         H         H         1.0       0.24727466598309464           0.7920903770615293 0.31658992439823164          1.0000   
         H         H         1.0       0.2270839148611549  0.7761963011830653  0.25490226378007896          1.0000   
         H         H         1.0       0.1967938469645664  0.8458877463364352  0.4149473346397559 1.0000   
         H         H         1.0       0.2055792508213366  0.8158946704628923  0.42838391613177823          1.0000   
         H         H         1.0       0.2487582132805997  0.8374420848270797  0.3244348818729445 1.0000   
         H         H         1.0       0.23700545817903515           0.8622762391956066 0.3029472181426701 1.0000   
         H         H         1.0       0.2604932867952033  0.7868453331312362  0.38097261564176677          1.0000   
         H         H         1.0       0.2987218867854982  0.8014291241811934  0.3804878948007011 1.0000   
         H         H         1.0       0.3097730988723493  0.8661703632906527  0.3992285059116171 1.0000   
         H         H         1.0       0.2742526797204391  0.852244559734282   0.39849306281128427          1.0000   
         H         H         1.0       0.24713507800049153           0.8282990989963888 0.4709232521255682 1.0000   
         H         H         1.0       0.23533833912035423           0.8128904716621558 0.5365770452168234 1.0000   
         H         H         1.0       0.20659163379330353           0.7480923183606235 0.48677044854405416          1.0000   
         H         H         1.0       0.21632872748149917           0.7635821826548862 0.41460691035049424          1.0000   
         C         C         1.0       0.1644244621992193  0.6902935518208896  0.814159532478534  1.0000   
         C         C         1.0       0.18436180907956587           0.6985123483655177 0.7924217982937807 1.0000   
         C         C         1.0       0.19521788408237117           0.7195842889880217 0.7763163390746138 1.0000   
         C         C         1.0       0.18569433035507285           0.7319503055157328 0.7775730348342171 1.0000   
         C         C         1.0       0.1674375795926859  0.7251381246597893  0.8031897065568998 1.0000   
         C         C         1.0       0.15635955517856745           0.7045255977173847 0.8208450383026112 1.0000   
         H         H         1.0       0.19168863114193993           0.6885794397245221 0.7941351479905323 1.0000   
         H         H         1.0       0.21233150446658913           0.7253110764399404 0.7648180148504385 1.0000   
         H         H         1.0       0.16048915757090493           0.7355407787374116 0.808734042631285  1.0000   
         H         H         1.0       0.14243187104291302           0.7009738604414173 0.8406648859689702 1.0000   
         C         C         1.0       0.1611579434767169  0.7508110223446103  0.7277487734255579 1.0000   
         C         C         1.0       0.18116900422757037           0.7648735397632518 0.744561285694826  1.0000   
         C         C         1.0       0.18768212978105597           0.7873902764439935 0.748460053009237  1.0000   
         C         C         1.0       0.17410552090818623           0.7948306381938688 0.7331989184523364 1.0000   
         C         C         1.0       0.15400110160538208           0.7790068262368923 0.7150080173661878 1.0000   
         C         C         1.0       0.14812599172939464           0.7574724618283847 0.7126196571171477 1.0000   
         C         C         1.0       0.1972511466708121  0.7568558590449302  0.7579670046708769 1.0000   
         C         C         1.0       0.20972548146252365           0.7610552011015644 0.7131422225890146 1.0000   
         C         C         1.0       0.2278519435156403  0.7811825999376224  0.698598909037963  1.0000   
         C         C         1.0       0.23417571618137775           0.7834966148427877 0.6572529625723724 1.0000   
         C         C         1.0       0.22417347511941843           0.7652411026294351 0.62988173234926   1.0000   
         C         C         1.0       0.20758107617144625           0.7447902735979123 0.6452225350999471 1.0000   
         C         C         1.0       0.20007068799524075           0.7433819784345913 0.6856189105311962 1.0000   
         C         C         1.0       0.20373730900182602           0.7724769238673058 0.8330525121502462 1.0000   
         C         C         1.0       0.2175750627580649  0.78287427902594    0.866523263067012  1.0000   
         C         C         1.0       0.23950793702575504           0.7905423901164058 0.8633010017450782 1.0000   
         C         C         1.0       0.24685294531553778           0.7853097415389202 0.8273859070418056 1.0000   
         C         C         1.0       0.23260247469099485           0.7729066634796208 0.7963759450027795 1.0000   
         C         C         1.0       0.21127743623409098           0.7673326637637302 0.7974155213948474 1.0000   
         C         C         1.0       0.2555400230789768  0.8062310266922543  0.8998773643218848 1.0000   
         C         C         1.0       0.2337627675582001  0.8542167298562144  0.9024435665119735 1.0000   
         C         C         1.0       0.23003248139093    0.8403122645545191  0.9354003991010776 1.0000   
         C         C         1.0       0.23821154901585898           0.8268570547605019 0.9372103251198025 1.0000   
         C         C         1.0       0.2492870344750656  0.8251030718494752  0.9023912690382389 1.0000   
         C         C         1.0       0.2527223095836206  0.8385475435259945  0.868128192669709  1.0000   
         C         C         1.0       0.24571884822971535           0.8536890471398054 0.8692731765829591 1.0000   
         C         C         1.0       0.2805358120116464  0.8144500375071163  0.8883551716153185 1.0000   
         C         C         1.0       0.2892133451284597  0.8001989398225413  0.8878167068482962 1.0000   
         C         C         1.0       0.31108982216598957           0.8081078341051395 0.8769886367418822 1.0000   
         C         C         1.0       0.3255082122292275  0.830032676972279   0.8693307745117616 1.0000   
         C         C         1.0       0.3181618315201596  0.8445463341777331  0.8745323395344632 1.0000   
         C         C         1.0       0.2955968647614987  0.8364510087523868  0.882658462350797  1.0000   
         C         C         1.0       0.2627143066011382  0.8061325584517001  0.9809280215557319 1.0000   
         C         C         1.0       0.2580960728764864  0.7953422839036117  0.018905396356956317         1.0000   
         C         C         1.0       0.24322647443785275           0.7731410275434003 0.022270660710207446         1.0000   
         C         C         1.0       0.23555010633033174           0.7608585092203137 0.9865610680404051 1.0000   
         C         C         1.0       0.24043714113115944           0.771181712544604  0.948692722931588  1.0000   
         C         C         1.0       0.25253317958653304           0.7939316546205709 0.9444536852496666 1.0000   
         H         H         1.0       0.1555279907623621  0.7335770209848627  0.7235767999328435 1.0000   
         H         H         1.0       0.20320741118826585           0.7986350905043785 0.7603133364165655 1.0000   
         H         H         1.0       0.1778083498072943  0.8110281102119777  0.7375229933021114 1.0000   
         H         H         1.0       0.13233247436117668           0.7448508310671873 0.6976221403139589 1.0000   
         H         H         1.0       0.23574011858140656           0.7953583573289219 0.7197837632903438 1.0000   
         H         H         1.0       0.2487063911134945  0.7983889866036321  0.6470155309842838 1.0000   
         H         H         1.0       0.1997681771018828  0.7313784367061956  0.6262219632212709 1.0000   
         H         H         1.0       0.18627456473361761           0.7270804685820553 0.6949713646508305 1.0000   
         H         H         1.0       0.1858272945997706  0.767135075912353   0.8372352481856917 1.0000   
         H         H         1.0       0.2092878191656653  0.7854901123663193  0.8936066661666487 1.0000   
         H         H         1.0       0.2635216998104613  0.7913572352078119  0.8226515052445202 1.0000   
         H         H         1.0       0.23908898768826517           0.767014021051138  0.771034590618451  1.0000   
         H         H         1.0       0.2216933781288626  0.8401639607476236  0.9631897795781844 1.0000   
         H         H         1.0       0.2329777844685186  0.8166405346279798  0.9644155439458038 1.0000   
         H         H         1.0       0.26066223691585133           0.8365640586596259 0.8407817730827438 1.0000   
         H         H         1.0       0.24800979533994805           0.8632776199956655 0.8404738329101775 1.0000   
         H         H         1.0       0.2787820594811467  0.7830734593621443  0.8938794101996542 1.0000   
         H         H         1.0       0.31838788546910524           0.7981790336978277 0.8687166595196064 1.0000   
         H         H         1.0       0.3273424962196693  0.8620488851968244  0.8676394881341544 1.0000   
         H         H         1.0       0.29085839708837335           0.8487635617605969 0.8824476623601939 1.0000   
         H         H         1.0       0.27205646655156646           0.8227795787299415 0.9841335817080877 1.0000   
         H         H         1.0       0.2657497277907876  0.8039787384372953  0.04839385800826176          1.0000   
         H         H         1.0       0.2248610673646328  0.7436813765255289  0.986889582404879  1.0000   
         H         H         1.0       0.2341148887427161  0.7606184514865229  0.9202556791378846 1.0000   
         C         C         1.0       0.039491333111525063          0.837873042619599  0.04633827486627132          1.0000   
         C         C         1.0       0.05325786133072626           0.8584709961572756 0.06017574433149773          1.0000   
         C         C         1.0       0.07361437920731742           0.8637146489286509 0.07513806448280079          1.0000   
         C         C         1.0       0.08103409985720635           0.8490781160528765 0.07131664878075533          1.0000   
         C         C         1.0       0.06792317114268083           0.829907743038261  0.05060398765871508          1.0000   
         C         C         1.0       0.04710468252060235           0.823718963934101  0.03990622494495619          1.0000   
         H         H         1.0       0.04760761434125999           0.8694596436036995 0.0666711563918647 1.0000   
         H         H         1.0       0.08388856289247895           0.8797062813313664 0.0909443966139024 1.0000   
         H         H         1.0       0.0740382935184564  0.8193288950599383  0.043308663837815356         1.0000   
         H         H         1.0       0.038005515857274234          0.8087076474022711 0.02281220377309837          1.0000   
         C         C         1.0       0.09523694984305603           0.8190933202329111 0.120407571797747  1.0000   
         C         C         1.0       0.10874249921739979           0.8361779854837548 0.09457452166312129          1.0000   
         C         C         1.0       0.12758438845892026           0.8369567460255025 0.08045066324964856          1.0000   
         C         C         1.0       0.1330590560470719  0.8220700387095028  0.09266998204059891          1.0000   
         C         C         1.0       0.11896597401417182           0.8055420338522005 0.11964442500344576          1.0000   
         C         C         1.0       0.09919804050049681           0.8029325666351718 0.1295403084094638 1.0000   
         C         C         1.0       0.10478961919238992           0.8559601392434535 0.08834654623656403          1.0000   
         C         C         1.0       0.10781843605067065           0.8652265821328231 0.13676337138821915          1.0000   
         C         C         1.0       0.12951889671970235           0.877606859597924  0.15221234235617798          1.0000   
         C         C         1.0       0.13449631932314354           0.8855482441317437 0.19441147085507962          1.0000   
         C         C         1.0       0.1175676016686448  0.8792626559107791  0.2204043009545814 1.0000   
         C         C         1.0       0.0958454218810379  0.8667092415242639  0.20641115696322984          1.0000   
         C         C         1.0       0.09091013282401829           0.8604006330991648 0.16487725225327815          1.0000   
         C         C         1.0       0.11616300200826216           0.8622802677856144 0.011191529967206293         1.0000   
         C         C         1.0       0.12659499384436018           0.8745076830703078 0.9775076934831637 1.0000   
         C         C         1.0       0.14154008675873803           0.896158619442727  0.9814301025969442 1.0000   
         C         C         1.0       0.14630865746357427           0.9048520532658827 0.02280972233061603          1.0000   
         C         C         1.0       0.13380289967069445           0.893067708385327  0.055796439399774994         1.0000   
         C         C         1.0       0.11867200953136663           0.8711934217894997 0.05033067375992416          1.0000   
         C         C         1.0       0.15707595592987403           0.9113169739194436 0.9441145348259891 1.0000   
         C         C         1.0       0.19932979881466234           0.8828092326604966 0.9366605396030052 1.0000   
         C         C         1.0       0.18340048906675013           0.8773779350005546 0.9066437074476911 1.0000   
         C         C         1.0       0.16934309690788146           0.8847815441679506 0.9107489551579129 1.0000   
         C         C         1.0       0.17328144640374527           0.9012154041780684 0.9390673431858338 1.0000   
         C         C         1.0       0.1903906818910456  0.9073899333412366  0.9674960948218418 1.0000   
         C         C         1.0       0.20344008113230205           0.8987122917199734 0.9662460481806172 1.0000   
         C         C         1.0       0.16804809090500356           0.9362047280496961 0.9497544797370119 1.0000   
         C         C         1.0       0.1565140507351591  0.9447541535086509  0.968248612575617  1.0000   
         C         C         1.0       0.165775218425586   0.9676555579179261  0.9712017910536267 1.0000   
         C         C         1.0       0.18583329464461196           0.9804674584699048 0.9538014669839473 1.0000   
         C         C         1.0       0.1970090248644932  0.9713437064196024  0.9354967084248291 1.0000   
         C         C         1.0       0.18736187821228556           0.9492087417575523 0.9319441271624878 1.0000   
         C         C         1.0       0.15562608505260778           0.9170365937763112 0.8621358590939406 1.0000   
         C         C         1.0       0.14468874901161224           0.9126367263865031 0.82475995913827   1.0000   
         C         C         1.0       0.12265956580174414           0.9016948013721217 0.825500509370614  1.0000   
         C         C         1.0       0.11158450692051833           0.8950894270930508 0.8627446314873449 1.0000   
         C         C         1.0       0.12205106886037728           0.8998185947756925 0.8997811242383584 1.0000   
         C         C         1.0       0.1448694829028899  0.9094445494517298  0.9008223323437657 1.0000   
         H         H         1.0       0.08019936832304869           0.8161758558188301 0.1320019269231102 1.0000   
         H         H         1.0       0.13955770168846282           0.8499160786920701 0.06160561781305581          1.0000   
         H         H         1.0       0.14719018068490677           0.823424462746525  0.07981364714961393          1.0000   
         H         H         1.0       0.086388304117752   0.7898272186248126  0.14688648356438982          1.0000   
         H         H         1.0       0.1439966428603466  0.8789618662096215  0.13470762648064893          1.0000   
         H         H         1.0       0.15124177556983442           0.8950159526115662 0.2060196866454539 1.0000   
         H         H         1.0       0.08245703644120346           0.8595522483644411 0.2289193686881586 1.0000   
         H         H         1.0       0.07453222545402687           0.8483577618742477 0.15378923709927522          1.0000   
         H         H         1.0       0.10619106285239217           0.8452796219475973 0.005593535705630703         1.0000   
         H         H         1.0       0.12440733998491438           0.8669415771710531 0.9466920122695868 1.0000   
         H         H         1.0       0.15919116058915936           0.9223209930754964 0.03101565247754186          1.0000   
         H         H         1.0       0.13795723067422522           0.9028846908834143 0.08465684288091223          1.0000   
         H         H         1.0       0.1795933502821467  0.8644291901039028  0.8816899177434953 1.0000   
         H         H         1.0       0.15753182526396858           0.8815962245175887 0.8878320264772511 1.0000   
         H         H         1.0       0.1940451088771464  0.9186957342069407  0.9912071162663548 1.0000   
         H         H         1.0       0.21618594082070525           0.9040868643043486 0.9879558919638082 1.0000   
         H         H         1.0       0.13957043655406876           0.9338240132960816 0.9804200290702509 1.0000   
         H         H         1.0       0.15735965059213783           0.9759481991632336 0.9822409881308675 1.0000   
         H         H         1.0       0.21330791979827404           0.9811727100987594 0.9271858571725016 1.0000   
         H         H         1.0       0.1975677962550008  0.9431664383256037  0.9177826171724139 1.0000   
         H         H         1.0       0.17247916457124546           0.9241445544635751 0.8624166087820173 1.0000   
         H         H         1.0       0.15478983818112887           0.9184481798851782 0.7954498185828209 1.0000   
         H         H         1.0       0.09391939767069059           0.8872087786917662 0.8616472856998939 1.0000   
         H         H         1.0       0.11179240331703252           0.8934654033969863 0.9262464245423773 1.0000   
         C         C         1.0       0.0394924786320467  0.8152886853719233  0.5257730827561773 1.0000   
         C         C         1.0       0.04787588592215726           0.8337397667721129 0.548044660414533  1.0000   
         C         C         1.0       0.06565591808381704           0.8409909885024056 0.5709719861283109 1.0000   
         C         C         1.0       0.07819391288521343           0.83062027774406   0.5711515286240446 1.0000   
         C         C         1.0       0.07111369135444012           0.8132775659738768 0.5440627005031423 1.0000   
         C         C         1.0       0.04944273281009408           0.8030791196679525 0.5263842875882087 1.0000   
         H         H         1.0       0.040174935708334324          0.843753669345456  0.5461030332813387 1.0000   
         H         H         1.0       0.07022652688843618           0.8551117280528289 0.5900585952811579 1.0000   
         H         H         1.0       0.0826085401872842  0.8074885955718015  0.5383653313324603 1.0000   
         H         H         1.0       0.043695637610852954          0.7885417848955042 0.5052776919440437 1.0000   
         C         C         1.0       0.0929980554428036  0.8038670083540681  0.624684043090596  1.0000   
         C         C         1.0       0.10849028632328832           0.8240042070085151 0.6083269165201687 1.0000   
         C         C         1.0       0.1304186922926756  0.8309426530590766  0.6097878603061041 1.0000   
         C         C         1.0       0.13691247045241844           0.8160440486133638 0.6182583838795324 1.0000   
         C         C         1.0       0.1222935360764469  0.7961218718521138  0.6339026186098532 1.0000   
         C         C         1.0       0.10008528300317338           0.7899446480997891 0.6379416523832647 1.0000   
         C         C         1.0       0.10180951070836794           0.8412935777073949 0.5947571781099023 1.0000   
         C         C         1.0       0.10165356940603847           0.8512693538642462 0.6414336148595277 1.0000   
         C         C         1.0       0.12163667680485173           0.8664826872347156 0.6580781943927184 1.0000   
         C         C         1.0       0.12289035206750634           0.8728283050299479 0.6993285736710572 1.0000   
         C         C         1.0       0.10416314498599796           0.8660408577935501 0.7234142934812251 1.0000   
         C         C         1.0       0.08388324692172253           0.8517715737763732 0.7049472286904269 1.0000   
         C         C         1.0       0.08350679164335141           0.84394130301889   0.6657774164908877 1.0000   
         C         C         1.0       0.12475793939285595           0.8509437307264984 0.5236572924250456 1.0000   
         C         C         1.0       0.1352003419398366  0.8652252582160898  0.4911984633074509 1.0000   
         C         C         1.0       0.13926931942127838           0.886868274367077  0.4921178698776872 1.0000   
         C         C         1.0       0.1306649727872201  0.8918300096627688  0.5258325212828641 1.0000   
         C         C         1.0       0.12102694170730025           0.8789346218547844 0.5583975921765117 1.0000   
         C         C         1.0       0.11733762174795095           0.8580946901782451 0.5585369518997142 1.0000   
         C         C         1.0       0.15295957398536442           0.9042874800290676 0.4568352162309934 1.0000   
         C         C         1.0       0.2065629393723673  0.8998191395610511  0.39895560656705953          1.0000   
         C         C         1.0       0.19857089407886241           0.9106352954108391 0.3777943324974582 1.0000   
         C         C         1.0       0.1807773860753631  0.9114570760993247  0.3961000993054694 1.0000   
         C         C         1.0       0.1727364569507518  0.9024519986893266  0.4351095313644888 1.0000   
         C         C         1.0       0.18366610724207888           0.8936050240732997 0.455607715877383  1.0000   
         C         C         1.0       0.19933521857411332           0.8915619282503414 0.43767708481493217          1.0000   
         C         C         1.0       0.16438206270718592           0.9281006156352661 0.4799151717058242 1.0000   
         C         C         1.0       0.15373846215488282           0.94043503158243   0.4795131097227139 1.0000   
         C         C         1.0       0.16402664598901193           0.96238444897407   0.49112789473332613          1.0000   
         C         C         1.0       0.1844162620805631  0.9717800647345368  0.5086526008445975 1.0000   
         C         C         1.0       0.19599594113215166           0.9611507026704981 0.5075946592148197 1.0000   
         C         C         1.0       0.185609607401376   0.9395405620246116  0.495194826821627  1.0000   
         C         C         1.0       0.13808116259684905           0.9175197350433076 0.39355330669770483          1.0000   
         C         C         1.0       0.12802605790760946           0.9139020911109758 0.35446774255258146          1.0000   
         C         C         1.0       0.11626525918457979           0.8927570455395064 0.33940475411398446          1.0000   
         C         C         1.0       0.11465002189463135           0.8752327195122658 0.36244701592970957          1.0000   
         C         C         1.0       0.1239709758912392  0.8797962419159815  0.4024507167681001 1.0000   
         C         C         1.0       0.13600743738632076           0.9009698421096232 0.4196824530435411 1.0000   
         H         H         1.0       0.0769453469583687  0.8001219406604251  0.6312439267768708 1.0000   
         H         H         1.0       0.1427484756720912  0.847980880248935   0.6000080993317647 1.0000   
         H         H         1.0       0.15345244827962481           0.820525028982261  0.6161317709868624 1.0000   
         H         H         1.0       0.08928917228273417           0.7747001692240435 0.6531263628811936 1.0000   
         H         H         1.0       0.13619686788576016           0.8727437421213263 0.6364178689473056 1.0000   
         H         H         1.0       0.13903723253448694           0.8855125986554959 0.7098771149265809 1.0000   
         H         H         1.0       0.07027892848086106           0.8449584172873356 0.7255033521004347 1.0000   
         H         H         1.0       0.06796622812888234           0.831209216834581  0.653583872214481  1.0000   
         H         H         1.0       0.12234966164834833           0.8346314943157981 0.5218051910071939 1.0000   
         H         H         1.0       0.14090355874804508           0.8602490737341648 0.4628376636254807 1.0000   
         H         H         1.0       0.13360553240682785           0.907915221733342  0.5317000937375318 1.0000   
         H         H         1.0       0.11702839417066326           0.885819701436706  0.5869044567562879 1.0000   
         H         H         1.0       0.20177704650244171           0.915076112869286  0.3462688568047527 1.0000   
         H         H         1.0       0.17547014549136453           0.9212348423973811 0.3801703093485042 1.0000   
         H         H         1.0       0.17992071133908724           0.8882185389308478 0.48715734547273815          1.0000   
         H         H         1.0       0.20583141503701474           0.8826173094683695 0.4555061873387256 1.0000   
         H         H         1.0       0.13616849109209822           0.9314836556159655 0.46975241363637393          1.0000   
         H         H         1.0       0.15426444996826957           0.9698218318449935 0.4924398002435188 1.0000   
         H         H         1.0       0.21260132949303506           0.9673120466861148 0.5178132269714074 1.0000   
         H         H         1.0       0.19418767529471848           0.9314974962711605 0.49583178445673587          1.0000   
         H         H         1.0       0.1492344051401597  0.9339810822356611  0.40305225360834646          1.0000   
         H         H         1.0       0.1309209393847515  0.9265258748114159  0.3329137133288583 1.0000   
         H         H         1.0       0.10648468978610676           0.8596335107635543 0.3475955762923819 1.0000   
         H         H         1.0       0.12405878771149145           0.865359897796714  0.41625775954633343          1.0000   
         C         C         1.0       0.5209725692953641  0.8717769152311653  0.33045215212800005          1.0000   
         C         C         1.0       0.5022741294962242  0.858456911004253   0.35489732506710037          1.0000   
         C         C         1.0       0.49216449705544074           0.8668637396879332 0.3791275087291672 1.0000   
         C         C         1.0       0.5021082569752483  0.8890627692962502  0.3846472356199378 1.0000   
         C         C         1.0       0.5207792424930179  0.9026962825827081  0.3606533946408946 1.0000   
         C         C         1.0       0.5292461909907653  0.8939665646918089  0.33149530958664863          1.0000   
         H         H         1.0       0.4915941991398985  0.8404174192926949  0.352295142875099  1.0000   
         H         H         1.0       0.4783952096017665  0.8565601725434454  0.39636267999156977          1.0000   
         H         H         1.0       0.5283635814087343  0.9204836339517856  0.3621988933741914 1.0000   
         H         H         1.0       0.5438052178072679  0.9048031697386122  0.3135176166194804 1.0000   
         C         C         1.0       0.5298158260303901  0.930651869208079   0.4416431547420216 1.0000   
         C         C         1.0       0.5083716823515427  0.9233122886702568  0.4324929250810157 1.0000   
         C         C         1.0       0.5015311719672615  0.938740146585292   0.4376633892444458 1.0000   
         C         C         1.0       0.5151936539801     0.9590924087872678  0.4538068240792282 1.0000   
         C         C         1.0       0.5363933370829514  0.9645461519667863  0.4659884302067321 1.0000   
         C         C         1.0       0.5438192841047129  0.9508769285298727  0.4574774121893192 1.0000   
         C         C         1.0       0.4911690307144759  0.8997749713653522  0.41184007128838884          1.0000   
         C         C         1.0       0.4795127364428243  0.8863297850631996  0.4536214914778105 1.0000   
         C         C         1.0       0.46090252735975995           0.8855436581808972 0.4689069380512957 1.0000   
         C         C         1.0       0.45276583473292537           0.8772608458821823 0.5083913851019894 1.0000   
         C         C         1.0       0.46443357295992366           0.8713475726066627 0.5342423858214037 1.0000   
         C         C         1.0       0.480671528218522   0.8684494857056544  0.5165915509605754 1.0000   
         C         C         1.0       0.4889537735982023  0.8773189569244013  0.47797140767824364          1.0000   
         C         C         1.0       0.480552930931682   0.9152349615852479  0.3483579767409654 1.0000   
         C         C         1.0       0.4674677048773344  0.9162096303599632  0.31792880648689564          1.0000   
         C         C         1.0       0.4463087699467487  0.8980440065378842  0.31226906298718543          1.0000   
         C         C         1.0       0.4393066287088352  0.879861694311077   0.3382589510994106 1.0000   
         C         C         1.0       0.4538278574206785  0.8803353681927198  0.3691338954319594 1.0000   
         C         C         1.0       0.4736104495852889  0.8987002046650678  0.37623685589423145          1.0000   
         C         C         1.0       0.4303834346338756  0.8959554998150939  0.27225386294668963          1.0000   
         C         C         1.0       0.43795795480338495           0.9580610836628002 0.2282871617835614 1.0000   
         C         C         1.0       0.42839270366603205           0.940723504694156  0.20193369232521194          1.0000   
         C         C         1.0       0.42593274385583096           0.9212267839418307 0.21514322945132752          1.0000   
         C         C         1.0       0.4332925219981853  0.9190648658083396  0.25548105102820134          1.0000   
         C         C         1.0       0.44127829522088147           0.9377339154490016 0.2828882580142467 1.0000   
         C         C         1.0       0.4438014431990151  0.9563478645209375  0.2686097286836823 1.0000   
         C         C         1.0       0.40565676383203536           0.8831208984335234 0.28690547176697623          1.0000   
         C         C         1.0       0.39102773632850857           0.8609541992255201 0.27992304245805444          1.0000   
         C         C         1.0       0.37000330944695703           0.8507155751232943 0.2934176494588678 1.0000   
         C         C         1.0       0.3626768919243988  0.8606010514047389  0.32104327281446315          1.0000   
         C         C         1.0       0.37735248093411616           0.8828034914863983 0.33222852497148414          1.0000   
         C         C         1.0       0.3994866881825062  0.8932942452826862  0.31726362011110054          1.0000   
         C         C         1.0       0.42135780620722457           0.8727067050559657 0.20449665531385566          1.0000   
         C         C         1.0       0.42736379924803586           0.8648633264394385 0.16937206191128137          1.0000   
         C         C         1.0       0.44821794629749173           0.8706496541426736 0.1640758171131499 1.0000   
         C         C         1.0       0.46384382154058706           0.883137431489939  0.19218313659216496          1.0000   
         C         C         1.0       0.4583223846691133  0.8905938145854287  0.22737013245869753          1.0000   
         C         C         1.0       0.43740752654958304           0.8865216669250326 0.23407252862037536          1.0000   
         H         H         1.0       0.5342581650270392  0.9181963423536731  0.4340126859673533 1.0000   
         H         H         1.0       0.4839392814559313  0.9341453482356373  0.43589975979870876          1.0000   
         H         H         1.0       0.5097843561068841  0.9695720577192187  0.46109106148806056          1.0000   
         H         H         1.0       0.5610599007340499  0.9570519134379164  0.4691490165518816 1.0000   
         H         H         1.0       0.45366057431307594           0.8927859760530833 0.4499862497526525 1.0000   
         H         H         1.0       0.43957726260017566           0.8781318163507453 0.5223734853609484 1.0000   
         H         H         1.0       0.48962888024552487           0.8655072094929956 0.5391021783397166 1.0000   
         H         H         1.0       0.5042836980286425  0.8794491393741911  0.46684256925700085          1.0000   
         H         H         1.0       0.4975093558390352  0.929514439697889   0.3495454894985512 1.0000   
         H         H         1.0       0.47362109468897445           0.929461516465142  0.2963125854141599 1.0000   
         H         H         1.0       0.42358315538459196           0.865315297564225  0.3365527937599438 1.0000   
         H         H         1.0       0.4505520888619549  0.8654629742525182  0.3831576475531826 1.0000   
         H         H         1.0       0.42501314407671    0.9423683923590217  0.16861859351421682          1.0000   
         H         H         1.0       0.4185375358856767  0.90805638446557    0.19353187817404094          1.0000   
         H         H         1.0       0.4452570312180684  0.9355511615679583  0.3137232934768929 1.0000   
         H         H         1.0       0.45129175239207014           0.9710645777035618 0.2889925764803342 1.0000   
         H         H         1.0       0.3952385741447637  0.8506942979150051  0.25985931097754633          1.0000   
         H         H         1.0       0.35900601964756446           0.8351089739939478 0.27702823131004367          1.0000   
         H         H         1.0       0.37579552582740905           0.8931789405538745 0.35480188061005896          1.0000   
         H         H         1.0       0.4117915463119083  0.9083583746256941  0.33319776001610263          1.0000   
         H         H         1.0       0.40628702150543106           0.8727917413668078 0.20348891908959788          1.0000   
         H         H         1.0       0.4140696119938703  0.8547577034422394  0.14581486719416448          1.0000   
         H         H         1.0       0.4809788841647448  0.8894555000490548  0.18502335051401558          1.0000   
         H         H         1.0       0.47263094821645685           0.9034713241291906 0.24351835700135285          1.0000   
         C         C         1.0       0.508109951920638   0.8460032204172103  0.8672432151136832 1.0000   
         C         C         1.0       0.4875741861544904  0.8391923494903785  0.8844003154391966 1.0000   
         C         C         1.0       0.48288740175484174           0.8541660990534363 0.8992692757267409 1.0000   
         C         C         1.0       0.4991398276312766  0.8766073143292705  0.9015650897406172 1.0000   
         C         C         1.0       0.519339581939211   0.8831895774210466  0.8849693432504767 1.0000   
         C         C         1.0       0.5234595056621416  0.8678840155493804  0.8676130545512187 1.0000   
         H         H         1.0       0.4761442449202115  0.8225501360417793  0.885537692116036  1.0000   
         H         H         1.0       0.467581713581741   0.8501672661302033  0.9119425789644293 1.0000   
         H         H         1.0       0.5330232380705608  0.8996948112959514  0.8838903841694613 1.0000   
         H         H         1.0       0.5398130147186446  0.872882618659596   0.854373785979394  1.0000   
         C         C         1.0       0.5319882049229052  0.9233691454265573  0.9543324222941386 1.0000   
         C         C         1.0       0.5153305088876433  0.919566695952361   0.9271581097338933 1.0000   
         C         C         1.0       0.5162105606727939  0.9387866772019939  0.9131092789291125 1.0000   
         C         C         1.0       0.5334565705349699  0.9594109706295341  0.9248274045824135 1.0000   
         C         C         1.0       0.5496403769126201  0.9618620188163904  0.953298857049592  1.0000   
         C         C         1.0       0.548952433585356   0.9434474039431693  0.9667768664506727 1.0000   
         C         C         1.0       0.4945648250654372  0.8949808680783103  0.9176614517172754 1.0000   
         C         C         1.0       0.4848133522424342  0.8909882450180612  0.9646348942095433 1.0000   
         C         C         1.0       0.473461276358028   0.9009366442180068  0.9807115719551935 1.0000   
         C         C         1.0       0.4684286815287085  0.9005775069736757  0.02381963876796573          1.0000   
         C         C         1.0       0.4741731709758776  0.8892808442297677  0.05001296046030715          1.0000   
         C         C         1.0       0.4840525313997591  0.8780712354425357  0.035192409180614705         1.0000   
         C         C         1.0       0.49048546894363226           0.8803170143839593 0.9936212568392254 1.0000   
         C         C         1.0       0.4894086045891346  0.9038375789775261  0.841359065932912  1.0000   
         C         C         1.0       0.4773866334147013  0.9048653486874224  0.8093617879826253 1.0000   
         C         C         1.0       0.45531555999914064           0.8967068330518206 0.8136518193212982 1.0000   
         C         C         1.0       0.44628053444771637           0.8890441614386045 0.8528582198425665 1.0000   
         C         C         1.0       0.4576398217225498  0.8860435289153342  0.8842373308841455 1.0000   
         C         C         1.0       0.479326169604187   0.8945256655646233  0.8796287476063137 1.0000   
         C         C         1.0       0.44042536075417965           0.8973502612596137 0.7737165567823368 1.0000   
         C         C         1.0       0.46058069480755437           0.9667450833867711 0.7794084169119142 1.0000   
         C         C         1.0       0.47227218132183424           0.9596712625354004 0.7566576025040869 1.0000   
         C         C         1.0       0.4661301366683788  0.9380339933257895  0.756673142439605  1.0000   
         C         C         1.0       0.4472676601085897  0.9218634585747951  0.7766245548096513 1.0000   
         C         C         1.0       0.4375037155921722  0.9302320906136712  0.8026678258162512 1.0000   
         C         C         1.0       0.4423807721491081  0.9515576617279526  0.8018639581856162 1.0000   
         C         C         1.0       0.4157668054479567  0.878557660530287   0.7769781704277198 1.0000   
         C         C         1.0       0.409775561788898   0.8578077140905737  0.7862465687849    1.0000   
         C         C         1.0       0.3886159412083643  0.8417572309801619  0.7944025495568869 1.0000   
         C         C         1.0       0.372339145337379   0.8467328313118806  0.7900704535840739 1.0000   
         C         C         1.0       0.3771496989250995  0.8678155793078077  0.7787933860411226 1.0000   
         C         C         1.0       0.3988134777039451  0.8821533112498693  0.7659994351263462 1.0000   
         C         C         1.0       0.4384193823082946  0.8973523472471038  0.6936728465907883 1.0000   
         C         C         1.0       0.4448636841572164  0.89518720778269    0.6537850300465099 1.0000   
         C         C         1.0       0.45819085778336194           0.8860374941035604 0.6482766266633163 1.0000   
         C         C         1.0       0.46355046119025295           0.8779549828922147 0.6822026320251642 1.0000   
         C         C         1.0       0.45560915662066975           0.8799933877217653 0.7218532414872071 1.0000   
         C         C         1.0       0.4455482414779173  0.8915112416907955  0.7291037973564719 1.0000   
         H         H         1.0       0.5325027194496195  0.9102095550308309  0.9691745336827137 1.0000   
         H         H         1.0       0.5034883984471313  0.9377227154425672  0.8900346665749777 1.0000   
         H         H         1.0       0.5351716771370183  0.9751374121548804  0.9132604730692508 1.0000   
         H         H         1.0       0.5613338967221353  0.9451329184001529  0.9902343545588103 1.0000   
         H         H         1.0       0.47024266957130006           0.9113418471048098 0.9625881177933631 1.0000   
         H         H         1.0       0.46104806152632966           0.909199807868522  0.03426778364023966          1.0000   
         H         H         1.0       0.48786131207041    0.8686395710304983  0.055705489914988804         1.0000   
         H         H         1.0       0.4982346438981164  0.8712724943189621  0.9835695152674613 1.0000   
         H         H         1.0       0.5071312054642042  0.9122302912508243  0.8381409435874091 1.0000   
         H         H         1.0       0.483948180537333   0.9127147002446265  0.7802214796844785 1.0000   
         H         H         1.0       0.430265379636339   0.8851116008190485  0.8579193069040225 1.0000   
         H         H         1.0       0.4499680915485643  0.8793889737210213  0.9134593077285333 1.0000   
         H         H         1.0       0.4856460610805441  0.9690523553051048  0.735291723135005  1.0000   
         H         H         1.0       0.4764991706271437  0.9332783624838533  0.7386504461052695 1.0000   
         H         H         1.0       0.42309306090558757           0.9179474196776649 0.8208700321778356 1.0000   
         H         H         1.0       0.4337826764802435  0.9576317383986775  0.8203989025375288 1.0000   
         H         H         1.0       0.4229527202332585  0.8547538891280559  0.7875690662371425 1.0000   
         H         H         1.0       0.383791562902116   0.8253195008581163  0.8038643583224508 1.0000   
         H         H         1.0       0.36533368084546575           0.8733661006622546 0.77888706354683   1.0000   
         H         H         1.0       0.4014385343648608  0.8960909021847266  0.7482333084251983 1.0000   
         H         H         1.0       0.42749198688160833           0.9037549488058385 0.6947189918008797 1.0000   
         H         H         1.0       0.44211089016091376           0.9026613905955837 0.6277709403038222 1.0000   
         H         H         1.0       0.4708777477639853  0.8689094174132533  0.6753073581751956 1.0000   
         H         H         1.0       0.4584625927016292  0.8719983349153043  0.7488259778761204 1.0000   
         C         C         1.0       0.6487887917468916  0.10974786946377507           0.14195878888754468          1.0000   
         C         C         1.0       0.6389011894737723  0.11999436968756676           0.12160298281990375          1.0000   
         C         C         1.0       0.6192801291710549  0.10837044981948983           0.10349981714343252          1.0000   
         C         C         1.0       0.6080311369132217  0.08558263332318802           0.10362137372708592          1.0000   
         C         C         1.0       0.6163418219207855  0.07464161687179167           0.12735951249511201          1.0000   
         C         C         1.0       0.6370787191008122  0.08703592796148274           0.1446172549464572 1.0000   
         H         H         1.0       0.6475567240522736  0.13767674009298825           0.11847789386014605          1.0000   
         H         H         1.0       0.6131972983998242  0.11610275523207439           0.08483765746737666          1.0000   
         H         H         1.0       0.607293804770133   0.05683323789427723           0.1325146636897962 1.0000   
         H         H         1.0       0.645807117672462   0.08045199488580289           0.16071480488811263          1.0000   
         C         C         1.0       0.5961030441452773  0.04433153714099516           0.05245820728301866          1.0000   
         C         C         1.0       0.5801887054929767  0.04801987898432295           0.06735855262297172          1.0000   
         C         C         1.0       0.5587915229737486  0.030840445560047204         0.06864228283549385          1.0000   
         C         C         1.0       0.5538773171931713  0.010897605879659785         0.05273328700351975          1.0000   
         C         C         1.0       0.5701677163747734  0.007834793700840174         0.03516487201557188          1.0000   
         C         C         1.0       0.5917056363011616  0.024010159238603945         0.03833180593569313          1.0000   
         C         C         1.0       0.5849522152477675  0.0713680488368879  0.07914511979078416          1.0000   
         C         C         1.0       0.5852335691331354  0.08120310359887245           0.03262784473190987          1.0000   
         C         C         1.0       0.5663016114984674  0.07562005791073483           0.008573853964263786         1.0000   
         C         C         1.0       0.5673060689475081  0.08171669840494084           0.967350879249994  1.0000   
         C         C         1.0       0.5870441663975052  0.0934300454973253  0.9483826985620568 1.0000   
         C         C         1.0       0.6054533237791347  0.09876665940233062           0.9701039221083314 1.0000   
         C         C         1.0       0.604752268099628   0.09173675101272195           0.011438070503857943         1.0000   
         C         C         1.0       0.5655642576694123  0.06460505239348896           0.1540653709082471 1.0000   
         C         C         1.0       0.5543308567341677  0.06745291512216986           0.18476093251510461          1.0000   
         C         C         1.0       0.5438339816686232  0.07942045045380909           0.1765939515002102 1.0000   
         C         C         1.0       0.5452671295844522  0.08708376952271484           0.13525927700076165          1.0000   
         C         C         1.0       0.5588236713452146  0.08614866268801509           0.10526718570929426          1.0000   
         C         C         1.0       0.5683942150127081  0.07352116417617698           0.11278206818721101          1.0000   
         C         C         1.0       0.5277615970764169  0.08143044519942412           0.20947618090510295          1.0000   
         C         C         1.0       0.47158740498113166           0.015821434771147915         0.18345809056017134          1.0000   
         C         C         1.0       0.48619893686856575           0.019407523713091127         0.21498797982582707          1.0000   
         C         C         1.0       0.5034463905900965  0.04002136853526012           0.22386238438018163          1.0000   
         C         C         1.0       0.5069256747537065  0.0574396339815134  0.19998488495848396          1.0000   
         C         C         1.0       0.49376560826745347           0.054221494882881555         0.16518644591988801          1.0000   
         C         C         1.0       0.47671702401706795           0.03275689614082298          0.15573588499804278          1.0000   
         C         C         1.0       0.5245461428193926  0.10148452706159869           0.20384621682134277          1.0000   
         C         C         1.0       0.5418122028475746  0.12238385653830358           0.19387879497846913          1.0000   
         C         C         1.0       0.5383509185026002  0.13960389049888142           0.1840298153055468 1.0000   
         C         C         1.0       0.5179491819286812  0.137058281094342   0.18957109324228197          1.0000   
         C         C         1.0       0.5001914716223623  0.11636762949968653           0.20075951747356563          1.0000   
         C         C         1.0       0.5041170807660516  0.09932249243727069           0.2075545865061455 1.0000   
         C         C         1.0       0.5193986082408897  0.08037418156631032           0.2890390010948994 1.0000   
         C         C         1.0       0.5250876913109538  0.08593735734135663           0.3299672067929154 1.0000   
         C         C         1.0       0.5466859716457869  0.09482238429005363           0.34122559252913487          1.0000   
         C         C         1.0       0.5628417768262498  0.10090767200510202           0.30965173750072367          1.0000   
         C         C         1.0       0.5571021628987943  0.0956465876432598  0.2675005290302501 1.0000   
         C         C         1.0       0.5353792965849076  0.08638065083380858           0.2568428980454045 1.0000   
         H         H         1.0       0.6126147066158258  0.05750660742882325           0.04964869367621155          1.0000   
         H         H         1.0       0.545601399971115   0.03289560928201488           0.07786768937813154          1.0000   
         H         H         1.0       0.5365838410152509  0.9989180605813444  0.056596456311864704         1.0000   
         H         H         1.0       0.604098280411456   0.022028123147370925         0.026031284474417694         1.0000   
         H         H         1.0       0.549692249198987   0.06743061861769094           0.022462040069387304         1.0000   
         H         H         1.0       0.5527241436461391  0.07689507461088528           0.9486654709669312 1.0000   
         H         H         1.0       0.6219864990688396  0.10972409871624841           0.9551706459868153 1.0000   
         H         H         1.0       0.6195729306179973  0.09463175242837396           0.02443387415985131          1.0000   
         H         H         1.0       0.5744622872829203  0.0568516123069479  0.16417497148879565          1.0000   
         H         H         1.0       0.5525214307537065  0.06013607214954292           0.21520454667409386          1.0000   
         H         H         1.0       0.5362983123445834  0.0948440748078963  0.12390728753630019          1.0000   
         H         H         1.0       0.5624512728556368  0.09686186428297042           0.07914679766832038          1.0000   
         H         H         1.0       0.48303149015398417           0.00503959389526489          0.2317714659603291 1.0000   
         H         H         1.0       0.514020492927738   0.04089458997500151           0.24832079535541143          1.0000   
         H         H         1.0       0.49594530376408336           0.06836187686683429          0.1474040990243436 1.0000   
         H         H         1.0       0.4654078503546813  0.031065614631449273         0.13030790787567795          1.0000   
         H         H         1.0       0.5581186231335286  0.12480414015290904           0.1911843109542338 1.0000   
         H         H         1.0       0.5513943341000626  0.15560179406144975           0.17629109344062954          1.0000   
         H         H         1.0       0.48379836265506343           0.11340067232933342          0.20182747752812272          1.0000   
         H         H         1.0       0.4903810862086392  0.08395108095001651           0.21317556972110593          1.0000   
         H         H         1.0       0.501751663803115   0.07167711528400686           0.28285318912312857          1.0000   
         H         H         1.0       0.5112009765210421  0.0798615027071579  0.35158384847387   1.0000   
         H         H         1.0       0.5802099622183055  0.10652899110727174           0.31890526665965396          1.0000   
         H         H         1.0       0.5702374136812386  0.10167315402442915           0.24388623307741997          1.0000   
         C         C         1.0       0.6536091189706262  0.12718716060014656           0.6173246660804922 1.0000   
         C         C         1.0       0.6411515697044882  0.13441695989614444           0.5962796661316726 1.0000   
         C         C         1.0       0.6202441085960516  0.12061606574143258           0.5852503422412179 1.0000   
         C         C         1.0       0.6108830354556051  0.09864871952719975           0.5911747372207589 1.0000   
         C         C         1.0       0.6233983343715519  0.09182969617075494           0.6131537840818141 1.0000   
         C         C         1.0       0.643440207973247   0.10535897875247631           0.6271529201334923 1.0000   
         H         H         1.0       0.6471559974918892  0.15128244745137068           0.5919744888217691 1.0000   
         H         H         1.0       0.6118204119703572  0.12735070495467699           0.5695919263043066 1.0000   
         H         H         1.0       0.6162193840522084  0.07432537583255411           0.6217729012380291 1.0000   
         H         H         1.0       0.650577558082831   0.09892629964320601           0.6472187205904463 1.0000   
         C         C         1.0       0.5912093706426783  0.05104143551348427           0.5477817308117061 1.0000   
         C         C         1.0       0.5783980738619744  0.056869927116084205         0.5727650747423402 1.0000   
         C         C         1.0       0.5580619157628881  0.040500306756174755         0.5849589454900986 1.0000   
         C         C         1.0       0.5506246223728959  0.01859556719830606           0.5743359327372236 1.0000   
         C         C         1.0       0.5639087400055193  0.013134052155070908         0.5517826388029695 1.0000   
         C         C         1.0       0.58412716552139    0.029990823685757406         0.5381547618963951 1.0000   
         C         C         1.0       0.5854472273084507  0.08198268808218177           0.5780841228658156 1.0000   
         C         C         1.0       0.5789035125091576  0.08651935869399646           0.5321531799269124 1.0000   
         C         C         1.0       0.5570262425340236  0.07599359114320682           0.5199286267491262 1.0000   
         C         C         1.0       0.5506472515173017  0.07323310561843989           0.47883766638212494          1.0000   
         C         C         1.0       0.566713482748186   0.08286121957133172           0.4484399623945719 1.0000   
         C         C         1.0       0.5881359484417497  0.09315634932852042           0.4588035010369019 1.0000   
         C         C         1.0       0.5942959971036043  0.0956433190686884  0.5004821203922124 1.0000   
         C         C         1.0       0.5763567214001839  0.08034786770493607           0.655612068172947  1.0000   
         C         C         1.0       0.5663754435319691  0.08297918323591902           0.690042220787982  1.0000   
         C         C         1.0       0.5538649109713353  0.09252698959991029           0.6873932872476642 1.0000   
         C         C         1.0       0.5513384655180555  0.09911860911927231           0.6484376624113185 1.0000   
         C         C         1.0       0.5623247220426589  0.09815136528821299           0.6139259966838624 1.0000   
         C         C         1.0       0.5740855960412493  0.08726693132021449           0.6163927652032549 1.0000   
         C         C         1.0       0.5400345964067486  0.09432818545662487           0.7260325911141288 1.0000   
         C         C         1.0       0.488362397200433   0.025431213632683424         0.7282326756543316 1.0000   
         C         C         1.0       0.5088210147084803  0.033129871515891085         0.7435055838042013 1.0000   
         C         C         1.0       0.5241601262644254  0.054857940487601224         0.7448843109298258 1.0000   
         C         C         1.0       0.5198114782806884  0.06974718122708044           0.7249632748663452 1.0000   
         C         C         1.0       0.4998001924087208  0.061855259957072244         0.705099206907973  1.0000   
         C         C         1.0       0.48386055203332357           0.03948278303705297          0.7073259382266186 1.0000   
         C         C         1.0       0.5345102062671029  0.1129659445744296  0.7211935827716964 1.0000   
         C         C         1.0       0.549518360169288   0.13385629712996786           0.7028259951807078 1.0000   
         C         C         1.0       0.5443299665607555  0.15026024479646832           0.6981805231787748 1.0000   
         C         C         1.0       0.523538360600521   0.1459514044753078  0.7113314759927407 1.0000   
         C         C         1.0       0.5094547480692911  0.12664041350602373           0.7321758363712693 1.0000   
         C         C         1.0       0.516089130029311   0.11151009598482638           0.7388106183913129 1.0000   
         C         C         1.0       0.540437693747579   0.09580599883208175           0.8076077945900896 1.0000   
         C         C         1.0       0.5505945543327804  0.10232028136086624           0.8458899635636926 1.0000   
         C         C         1.0       0.5735423515460359  0.11447190710217468           0.8472923731387149 1.0000   
         C         C         1.0       0.5850029141423598  0.12160259607021356           0.8105047531323956 1.0000   
         C         C         1.0       0.5748374925510257  0.11618838383360643           0.77269235691721   1.0000   
         C         C         1.0       0.5529261384791199  0.10191820964910128           0.7705075592943241 1.0000   
         H         H         1.0       0.6070238255478115  0.06343614025689753           0.5354638345587639 1.0000   
         H         H         1.0       0.5471718683367316  0.0432485613289952  0.6032135068875648 1.0000   
         H         H         1.0       0.5336537575276082  0.0066289731587743095        0.5767639215807737 1.0000   
         H         H         1.0       0.594309354967937   0.025191918772312444         0.520239862817826  1.0000   
         H         H         1.0       0.5444312992963474  0.06829864810965401           0.5421901829334493 1.0000   
         H         H         1.0       0.5337903544838577  0.06396131139677601           0.47262616273371066          1.0000   
         H         H         1.0       0.5999334425080106  0.1021034102996177  0.4359164697600572 1.0000   
         H         H         1.0       0.6109394847376781  0.10100375695793647           0.5073218087264201 1.0000   
         H         H         1.0       0.5867956860264153  0.07325176447066971           0.6587596265738404 1.0000   
         H         H         1.0       0.5692802879208895  0.07825826697380314           0.7211447991382701 1.0000   
         H         H         1.0       0.5384475079283602  0.10333706669015172           0.643834850190238  1.0000   
         H         H         1.0       0.5599401443172739  0.10423642544015553           0.5856340145204182 1.0000   
         H         H         1.0       0.5132107242233935  0.021400947827348832         0.7554736487183081 1.0000   
         H         H         1.0       0.5396206899119518  0.05903804784103042           0.7616754556294028 1.0000   
         H         H         1.0       0.4963821655756202  0.07204672555100587           0.6869111717404739 1.0000   
         H         H         1.0       0.4678120817572136  0.03493062807030498           0.6935211600255076 1.0000   
         H         H         1.0       0.5647684904207517  0.1372646412989915  0.6899318198514071 1.0000   
         H         H         1.0       0.5556907716590744  0.16658219314738978           0.6846496706130061 1.0000   
         H         H         1.0       0.4933784359117219  0.12153404656776105           0.7435321008832392 1.0000   
         H         H         1.0       0.5043486151746079  0.09644231501188229           0.7564155680764023 1.0000   
         H         H         1.0       0.5231338228094904  0.0844997217293811  0.8070827619978574 1.0000   
         H         H         1.0       0.5419183210662556  0.09612520844618251           0.8740414974199875 1.0000   
         H         H         1.0       0.6018934680276381  0.13042797492383096           0.8111828205776048 1.0000   
         H         H         1.0       0.5864767465421666  0.12243136728887546           0.7454878177697997 1.0000   
         C         C         1.0       0.548423079935741   0.8369317797658498  0.30423522362761285          1.0000   
         C         C         1.0       0.5400237910825797  0.8198872143019208  0.27579923984987254          1.0000   
         C         C         1.0       0.5532197280511014  0.8130025659939294  0.2568544519268312 1.0000   
         C         C         1.0       0.5761188555197513  0.8257052486560341  0.25955150453962755          1.0000   
         C         C         1.0       0.5834286509002452  0.8430188096142194  0.2883502037106074 1.0000   
         C         C         1.0       0.5701865775853063  0.8480101839215924  0.3099148313842903 1.0000   
         H         H         1.0       0.5216311014100415  0.8097644035551029  0.27094826713858927          1.0000   
         H         H         1.0       0.5458445150153979  0.7976116331054014  0.24037536999249892          1.0000   
         H         H         1.0       0.6006988154591668  0.8520963227812794  0.293645653618387  1.0000   
         H         H         1.0       0.5761881750607696  0.8610365713412974  0.33073640038035806          1.0000   
         C         C         1.0       0.6237131310108878  0.8590663540780382  0.22163084259446417          1.0000   
         C         C         1.0       0.6163888395487579  0.8368567118118094  0.22797229744410702          1.0000   
         C         C         1.0       0.6316359170983255  0.8298505659923944  0.22495134137428674          1.0000   
         C         C         1.0       0.653110516741998   0.8441568347572979  0.2165350787353509 1.0000   
         C         C         1.0       0.6599641947017714  0.8662442239349096  0.20905491914303886          1.0000   
         C         C         1.0       0.645245292124812   0.8737962779770064  0.2130736260463886 1.0000   
         C         C         1.0       0.5915975648465498  0.8184503437509866  0.2359235711050756 1.0000   
         C         C         1.0       0.5852772128386114  0.8100709373575411  0.18642748304216306          1.0000   
         C         C         1.0       0.5898074787058205  0.7952326881214774  0.1680791317603209 1.0000   
         C         C         1.0       0.588099274710724   0.7923300141888282  0.12445954784951437          1.0000   
         C         C         1.0       0.5827082651526898  0.8045462293882593  0.09897224997022626          1.0000   
         C         C         1.0       0.577703396413991   0.8189470563008844  0.11681133223445785          1.0000   
         C         C         1.0       0.5784272513557361  0.8211559093677993  0.1600720670293766 1.0000   
         C         C         1.0       0.6010342212432127  0.8055005442950703  0.301585008514884  1.0000   
         C         C         1.0       0.5980999364828695  0.78998784125112    0.33213717439281676          1.0000   
         C         C         1.0       0.5808290951523273  0.7683741360139881  0.32964529150863003          1.0000   
         C         C         1.0       0.5658596142064015  0.763646155992765   0.29752148199265294          1.0000   
         C         C         1.0       0.5708583847517605  0.7783536797471502  0.26451422561852106          1.0000   
         C         C         1.0       0.5870158505309748  0.7991580620036773  0.26774625528371004          1.0000   
         C         C         1.0       0.5784394687445681  0.7504105554168089  0.362807649740415  1.0000   
         C         C         1.0       0.6381018303615072  0.7490759573562925  0.3874117355302432 1.0000   
         C         C         1.0       0.619798291460015   0.735359718708498   0.4080436872694543 1.0000   
         C         C         1.0       0.6020528681969836  0.7377910117985397  0.4040819439102557 1.0000   
         C         C         1.0       0.6000854859353207  0.7502195460030174  0.3711553273832591 1.0000   
         C         C         1.0       0.6179748563436512  0.7600592856699523  0.3437838499303455 1.0000   
         C         C         1.0       0.6378822813775676  0.7621366018030712  0.35389092678493894          1.0000   
         C         C         1.0       0.5625211614896066  0.7255360518600316  0.34673471378627246          1.0000   
         C         C         1.0       0.5461151162720813  0.7108678140700988  0.3721605569532456 1.0000   
         C         C         1.0       0.5337212642610015  0.68998761987952    0.3607897092511166 1.0000   
         C         C         1.0       0.5375482291826924  0.6824575093508657  0.32298038217076225          1.0000   
         C         C         1.0       0.5544659779560163  0.6971978144922297  0.2962006331229899 1.0000   
         C         C         1.0       0.5661032393798688  0.7190621980879368  0.3084816769479391 1.0000   
         C         C         1.0       0.58794329325239    0.7722122885290961  0.43318052082332104          1.0000   
         C         C         1.0       0.5831507243527587  0.7806307163038062  0.46610013771303355          1.0000   
         C         C         1.0       0.5621023976811058  0.7757152433903698  0.4726013100727892 1.0000   
         C         C         1.0       0.5467654487846849  0.7651628501281827  0.4424705812397261 1.0000   
         C         C         1.0       0.5525210071971325  0.7568727379103762  0.4082035852387504 1.0000   
         C         C         1.0       0.5732210011126868  0.7599683346068797  0.40240877333900527          1.0000   
         H         H         1.0       0.6133579954572881  0.8661372838053903  0.21892539110670345          1.0000   
         H         H         1.0       0.6280971615768122  0.8135653447692521  0.22773111901475013          1.0000   
         H         H         1.0       0.6638120548700212  0.8380029145398744  0.20639639949892696          1.0000   
         H         H         1.0       0.6518946953368895  0.8912061539476008  0.2079772167190773 1.0000   
         H         H         1.0       0.591975750596684   0.7840521099330835  0.1866471715452688 1.0000   
         H         H         1.0       0.5926680178573449  0.7815845147930289  0.10985788086583487          1.0000   
         H         H         1.0       0.5727353312210773  0.8277522821008297  0.0950758567823466 1.0000   
         H         H         1.0       0.575644183907937   0.8338760104376894  0.1716730574879272 1.0000   
         H         H         1.0       0.612435221465747   0.8219571769836759  0.3091140550880932 1.0000   
         H         H         1.0       0.6088679372177764  0.7955623272925618  0.36030909972936886          1.0000   
         H         H         1.0       0.5515590688992916  0.7477066970660347  0.29583063330633336          1.0000   
         H         H         1.0       0.5593843719420798  0.7742881098045402  0.2385524643371781 1.0000   
         H         H         1.0       0.6180398962876015  0.72253713055397    0.4313032168510644 1.0000   
         H         H         1.0       0.5886485364656195  0.7288605408139209  0.42274255052191595          1.0000   
         H         H         1.0       0.6188238712777107  0.7700600764806773  0.318488817834097  1.0000   
         H         H         1.0       0.6519126691846228  0.7736160469485284  0.33583875966317267          1.0000   
         H         H         1.0       0.5438869876591051  0.7153179474936427  0.4049429642376627 1.0000   
         H         H         1.0       0.5212724904900984  0.679966473267878   0.3856172541015097 1.0000   
         H         H         1.0       0.559641867255233   0.6901140715837839  0.26937558188874744          1.0000   
         H         H         1.0       0.5768397799540923  0.7285263931531522  0.28324005690670573          1.0000   
         H         H         1.0       0.6045586700414901  0.7768802837297167  0.4287170495886389 1.0000   
         H         H         1.0       0.596474320095218   0.7914456945322769  0.4887256695708101 1.0000   
         H         H         1.0       0.5309423780216757  0.7643097970575489  0.44488662295598663          1.0000   
         H         H         1.0       0.5387177742093007  0.7491390742730097  0.3866310181596735 1.0000   
         C         C         1.0       0.5327288573505228  0.825316653503483   0.7795039057631599 1.0000   
         C         C         1.0       0.5278961005899739  0.8058497061329716  0.7625432912765773 1.0000   
         C         C         1.0       0.5440376322966994  0.8035853193460306  0.743083714527406  1.0000   
         C         C         1.0       0.5646689217383414  0.821315817560928   0.734944691492924  1.0000   
         C         C         1.0       0.5685925681350431  0.8413305536977584  0.7501104931769853 1.0000   
         C         C         1.0       0.5525020090338814  0.8435990529752426  0.7703686658410239 1.0000   
         H         H         1.0       0.5125977204023182  0.7935644366831367  0.7700661231971068 1.0000   
         H         H         1.0       0.5387902449164759  0.7870264993711367  0.7312089958427129 1.0000   
         H         H         1.0       0.5846206818727089  0.8566658713406758  0.7475063231494291 1.0000   
         H         H         1.0       0.5569747123565187  0.8598447168035981  0.7757079670747478 1.0000   
         C         C         1.0       0.6053501051311566  0.8527337651833655  0.6779953684038126 1.0000   
         C         C         1.0       0.6039984087078389  0.8355598275853144  0.7012418914854074 1.0000   
         C         C         1.0       0.6235135560237711  0.8366129353018201  0.7110991691823458 1.0000   
         C         C         1.0       0.6431054225295781  0.8532471984216445  0.6976204789719974 1.0000   
         C         C         1.0       0.6438881344721981  0.868804862540782   0.6711527153358978 1.0000   
         C         C         1.0       0.6250535028769715  0.8686553133472698  0.6613461906961854 1.0000   
         C         C         1.0       0.5812030318932192  0.8157462834944663  0.7135691400869716 1.0000   
         C         C         1.0       0.5727340558303593  0.8039642459636057  0.6694389552429179 1.0000   
         C         C         1.0       0.5804678696369724  0.7919794454925099  0.65078776124511   1.0000   
         C         C         1.0       0.5735942257228049  0.7820472498100315  0.6124241036935775 1.0000   
         C         C         1.0       0.5571270958974706  0.7837315503122309  0.5902795881871888 1.0000   
         C         C         1.0       0.5493035307392534  0.7959206732931529  0.6088707965409001 1.0000   
         C         C         1.0       0.557143785098636   0.8065253362498761  0.646580918933549  1.0000   
         C         C         1.0       0.5909179074995419  0.8099023012627663  0.7872969668660075 1.0000   
         C         C         1.0       0.5919825419020025  0.7989654007933961  0.82090479447114   1.0000   
         C         C         1.0       0.5840988557606451  0.7759630601650139  0.8173775471602333 1.0000   
         C         C         1.0       0.5757776660341924  0.7655341537823375  0.7781906889687866 1.0000   
         C         C         1.0       0.5771082126274906  0.7784627584278042  0.7449749534129176 1.0000   
         C         C         1.0       0.5843210411205588  0.8009508480600415  0.7485718640200423 1.0000   
         C         C         1.0       0.5859937340319832  0.7637025516304269  0.8572744491727129 1.0000   
         C         C         1.0       0.6537206396541099  0.7824054988368762  0.8401035348516593 1.0000   
         C         C         1.0       0.6488242730694254  0.7957677898026695  0.8618215045501938 1.0000   
         C         C         1.0       0.6275584238384622  0.7893456980781708  0.8709815698782006 1.0000   
         C         C         1.0       0.6109817995734871  0.770600443239296   0.852001477445413  1.0000   
         C         C         1.0       0.6161279922972399  0.7579472906344084  0.8248981106596132 1.0000   
         C         C         1.0       0.6373017061706104  0.7636688955094897  0.822219791338391  1.0000   
         C         C         1.0       0.5703619594011851  0.7373384877141478  0.8601297983565686 1.0000   
         C         C         1.0       0.5492601335256293  0.7287577629292772  0.8472182143399929 1.0000   
         C         C         1.0       0.5358372196347454  0.7071998333227685  0.840357413968207  1.0000   
         C         C         1.0       0.5425011146558499  0.6930245852670165  0.8503607127495266 1.0000   
         C         C         1.0       0.5615876341841601  0.6997722739230265  0.870841873791313  1.0000   
         C         C         1.0       0.5752229386657071  0.7216946951316893  0.8756334394020915 1.0000   
         C         C         1.0       0.5881925446247145  0.7668532029332319  0.9370869875713128 1.0000   
         C         C         1.0       0.5838561831315829  0.7715373445199568  0.9777447096286621 1.0000   
         C         C         1.0       0.5709147606541406  0.7815780631157239  0.9825629605497275 1.0000   
         C         C         1.0       0.5611635461424683  0.7834927096521731  0.9476343275052157 1.0000   
         C         C         1.0       0.5652318872395605  0.7788470145764232  0.9087231456315595 1.0000   
         C         C         1.0       0.5783680384294703  0.7692980132838805  0.9027348438406148 1.0000   
         H         H         1.0       0.5906908035734455  0.8520225667579638  0.6651259419185889 1.0000   
         H         H         1.0       0.623824796074529   0.8239962679862624  0.7297426435899125 1.0000   
         H         H         1.0       0.6574283537051305  0.8528787344372344  0.7057902815442917 1.0000   
         H         H         1.0       0.623957264451032   0.8812339675414549  0.6439812645287464 1.0000   
         H         H         1.0       0.5932282000969852  0.7904659232988289  0.6667953921859572 1.0000   
         H         H         1.0       0.5772060244490717  0.7698386197779089  0.5996110251255103 1.0000   
         H         H         1.0       0.5359623140017505  0.7962384136223198  0.5939876916695557 1.0000   
         H         H         1.0       0.5504348179249451  0.8161305444807051  0.6598731385794957 1.0000   
         H         H         1.0       0.5963409543709753  0.8269588607235488  0.7941224286698936 1.0000   
         H         H         1.0       0.5978373416416224  0.8077175325598505  0.850253609704893  1.0000   
         H         H         1.0       0.5723894035833751  0.7487332563734167  0.7734575726228583 1.0000   
         H         H         1.0       0.5685271194448367  0.7678742063245642  0.7193982520290162 1.0000   
         H         H         1.0       0.6613589464015944  0.8090941749607312  0.8807806766452304 1.0000   
         H         H         1.0       0.6251056706703942  0.7999980273474832  0.8896440397091023 1.0000   
         H         H         1.0       0.6029497040735897  0.7438823987091608  0.8074811373247569 1.0000   
         H         H         1.0       0.6410740543890521  0.751688410053557   0.8104336271496647 1.0000   
         H         H         1.0       0.5424745988809093  0.7386152748512588  0.8398123328643502 1.0000   
         H         H         1.0       0.5205889818583975  0.7023473923601581  0.8244646041521505 1.0000   
         H         H         1.0       0.5663148282855794  0.6875190874027577  0.8821134350494537 1.0000   
         H         H         1.0       0.5913483231873014  0.7279331535310403  0.8890679020912972 1.0000   
         H         H         1.0       0.5976814502880989  0.7585645348678188  0.9348065955815147 1.0000   
         H         H         1.0       0.594232111294996   0.7713273549550397  0.0025732485596649036        1.0000   
         H         H         1.0       0.5499421293974038  0.7895511678077874  0.9486590454304334 1.0000   
         H         H         1.0       0.558446019304515   0.7831520915429266  0.8836459989428679 1.0000   
         C         C         1.0       0.8036874006475716  0.9715007448632338  0.9981766128145504 1.0000   
         C         C         1.0       0.8135682500106902  0.9632361701870423  0.02207820299209627          1.0000   
         C         C         1.0       0.8017227478888301  0.9453769029855155  0.04677573527126076          1.0000   
         C         C         1.0       0.7800208414996008  0.934681551565748   0.04778376367497391          1.0000   
         C         C         1.0       0.769702909824927   0.9427621078844375  0.022325395411502604         1.0000   
         C         C         1.0       0.7810443167502361  0.9610402878781735  0.9983764375959578 1.0000   
         H         H         1.0       0.8303500428122426  0.9677422678766808  0.016913502679504686         1.0000   
         H         H         1.0       0.8106434261798154  0.9379753880701024  0.059371042620497604         1.0000   
         H         H         1.0       0.7519208842784058  0.9331474357820881  0.017195799850322976         1.0000   
         H         H         1.0       0.7715683667742761  0.9670246647905433  0.9815892744517454 1.0000   
         C         C         1.0       0.7376247797067879  0.9177674892653883  0.1000335560216446 1.0000   
         C         C         1.0       0.7438691190704996  0.9028244184042611  0.0842341621025076 1.0000   
         C         C         1.0       0.7282378719878521  0.8805783752073915  0.0820995758027635 1.0000   
         C         C         1.0       0.707535456983944   0.873466151804814   0.09948511658104761          1.0000   
         C         C         1.0       0.7022928154952987  0.8876669074646858  0.1166204480985283 1.0000   
         C         C         1.0       0.7180792418782161  0.9097896038826836  0.11707151962601103          1.0000   
         C         C         1.0       0.7677918022251623  0.910541671596254   0.0677640309228166 1.0000   
         C         C         1.0       0.7777618554332291  0.9073579664968122  0.11006504537291684          1.0000   
         C         C         1.0       0.7760539788623799  0.8874108318722199  0.11974711176417684          1.0000   
         C         C         1.0       0.7837863250584274  0.8843971449656383  0.15774241116561497          1.0000   
         C         C         1.0       0.7910529116177022  0.8995820366535258  0.18771987284933558          1.0000   
         C         C         1.0       0.7950033599396484  0.9201639766654032  0.1774149058890032 1.0000   
         C         C         1.0       0.78843778416277    0.9243500079222383  0.1399697550247157 1.0000   
         C         C         1.0       0.7540662189018372  0.8892322385779551  0.9946561709828964 1.0000   
         C         C         1.0       0.7555385203058329  0.8779773298413641  0.9591076697311504 1.0000   
         C         C         1.0       0.7724353542072065  0.8732847206404003  0.9570281167930547 1.0000   
         C         C         1.0       0.7877136712065956  0.8806094769124023  0.9890690856777937 1.0000   
         C         C         1.0       0.7869904139518519  0.8932129279045763  0.02084504284886393          1.0000   
         C         C         1.0       0.7685462569534677  0.8959194605816513  0.027970344539380767         1.0000   
         C         C         1.0       0.775033345766946   0.8595705062995078  0.9192666885658414 1.0000   
         C         C         1.0       0.7108698581000655  0.8043619953152981  0.882658035733723  1.0000   
         C         C         1.0       0.7274900339966774  0.8111501964737057  0.8536271337182041 1.0000   
         C         C         1.0       0.7483653430567928  0.8282223582774387  0.8658810784139884 1.0000   
         C         C         1.0       0.7514460022420535  0.8389812093916481  0.9049442652379751 1.0000   
         C         C         1.0       0.7345235170964636  0.8302738437888969  0.9333472077262842 1.0000   
         C         C         1.0       0.7145139169717406  0.8125948517512517  0.9237324057199118 1.0000   
         C         C         1.0       0.7900780599968453  0.8486784592374457  0.9307019697739773 1.0000   
         C         C         1.0       0.8124192482991203  0.8604474415092689  0.9247876427439753 1.0000   
         C         C         1.0       0.826169345646511   0.8539726578870829  0.941147087897784  1.0000   
         C         C         1.0       0.8175562603768124  0.8340938821726324  0.9587790452673824 1.0000   
         C         C         1.0       0.7952087087752521  0.8206765964861369  0.9604516914020257 1.0000   
         C         C         1.0       0.781483595611906   0.827774015690153   0.9473317047859231 1.0000   
         C         C         1.0       0.7936404425970827  0.870218767318076   0.8445250367982944 1.0000   
         C         C         1.0       0.7988905054901992  0.8816732970991306  0.8072211647305033 1.0000   
         C         C         1.0       0.7946067574216128  0.8988764660286371  0.8036783005162498 1.0000   
         C         C         1.0       0.788516233738915   0.9055427154683808  0.8397231973059601 1.0000   
         C         C         1.0       0.7847588030285598  0.8949521566926741  0.8760756117083892 1.0000   
         C         C         1.0       0.7840797485782955  0.8752854212628426  0.8786021803642848 1.0000   
         H         H         1.0       0.7479206209915858  0.934559572866617   0.10604694502181473          1.0000   
         H         H         1.0       0.731622643259785   0.868031832560229   0.06901929766163442          1.0000   
         H         H         1.0       0.6966333652118389  0.8565027778857572  0.10237972867044931          1.0000   
         H         H         1.0       0.7143151567584669  0.921069029602726   0.1321949852954671 1.0000   
         H         H         1.0       0.7692104806985831  0.8740663786857351  0.09670987981818917          1.0000   
         H         H         1.0       0.782128175290901   0.8686016309004421  0.1606122661087873 1.0000   
         H         H         1.0       0.7990149181009807  0.9312437172231928  0.2047318198993488 1.0000   
         H         H         1.0       0.7909492038895433  0.9406116330659592  0.13518796703217253          1.0000   
         H         H         1.0       0.7419996720386071  0.8942956762558111  0.9973652412671107 1.0000   
         H         H         1.0       0.7433726014631714  0.874872183559436   0.9360825367192696 1.0000   
         H         H         1.0       0.8012987757332781  0.8775473467291758  0.989375040781424  1.0000   
         H         H         1.0       0.8010807545989477  0.8998970054065277  0.0427387644991779 1.0000   
         H         H         1.0       0.7257715769270999  0.801937955525195   0.8242522935726242 1.0000   
         H         H         1.0       0.759677725357526   0.832563508852129   0.8393566667519138 1.0000   
         H         H         1.0       0.738371057979902   0.8335661085370274  0.9680339031648868 1.0000   
         H         H         1.0       0.7037258487484662  0.8055856799508626  0.9479779703716766 1.0000   
         H         H         1.0       0.8213399511408248  0.8771273136303666  0.9118006590865706 1.0000   
         H         H         1.0       0.8439204213595626  0.8647859344509703  0.9402427164976686 1.0000   
         H         H         1.0       0.7870368432271165  0.8048760772970185  0.9786192410505508 1.0000   
         H         H         1.0       0.7633597668112294  0.8174398248399349  0.9533787314779029 1.0000   
         H         H         1.0       0.7945710304210682  0.8558208588094806  0.8451086574037029 1.0000   
         H         H         1.0       0.803992044129404   0.877318727034313   0.779318776355878  1.0000   
         H         H         1.0       0.7866954280089159  0.9190935295838163  0.8368751590501974 1.0000   
         H         H         1.0       0.780173671072672   0.9024684636165715  0.9020702883492108 1.0000   
         C         C         1.0       0.8056311388204279  0.9620877614582475  0.5060735820816692 1.0000   
         C         C         1.0       0.8095819927257092  0.9467972575705252  0.5219522212483483 1.0000   
         C         C         1.0       0.7932711887149059  0.9267342036238667  0.535560271673279  1.0000   
         C         C         1.0       0.7716811118492929  0.9218336614184623  0.5366675292781709 1.0000   
         C         C         1.0       0.7666337668069664  0.9360734852979892  0.5170784103507085 1.0000   
         C         C         1.0       0.7835385845239335  0.9565532293479259  0.5032942988906337 1.0000   
         H         H         1.0       0.8263682177601895  0.9505752842230387  0.5267594911105286 1.0000   
         H         H         1.0       0.7976798274722828  0.9162200574927694  0.5526887437448599 1.0000   
         H         H         1.0       0.7500717656761529  0.9322204128992618  0.5110544360179071 1.0000   
         H         H         1.0       0.7797846816500614  0.9680529951828682  0.49122725106474097          1.0000   
         C         C         1.0       0.7281947657293504  0.914639367830974   0.5825230873412979 1.0000   
         C         C         1.0       0.7299618897185091  0.8974571066921063  0.5660613061807659 1.0000   
         C         C         1.0       0.7105567207065933  0.877009471339655   0.562425672929196  1.0000   
         C         C         1.0       0.6909265450283713  0.8749360684495446  0.5750646903602712 1.0000   
         C         C         1.0       0.689539254834205   0.8921076540347854  0.5887125991120552 1.0000   
         C         C         1.0       0.7084592040678569  0.9119362335320053  0.5935020001932372 1.0000   
         C         C         1.0       0.7536871033651346  0.9000243348350737  0.5590325085138482 1.0000   
         C         C         1.0       0.7607881501016621  0.898226576758003   0.6073904149529482 1.0000   
         C         C         1.0       0.7514790310806625  0.8782794883842043  0.6271593691082935 1.0000   
         C         C         1.0       0.7565689637913832  0.8766759700593006  0.6693511613071991 1.0000   
         C         C         1.0       0.7689362975772015  0.8949935652000525  0.6936546371284751 1.0000   
         C         C         1.0       0.7794256122193238  0.914441076973174   0.6733788356582265 1.0000   
         C         C         1.0       0.773919574614298   0.9163721488191809  0.6320473571587288 1.0000   
         C         C         1.0       0.7427579196858844  0.8808572923522745  0.4872465571248427 1.0000   
         C         C         1.0       0.7429301204343927  0.8676413442107023  0.45445966036504026          1.0000   
         C         C         1.0       0.7542614484348519  0.8565767427168809  0.4592014485152295 1.0000   
         C         C         1.0       0.7632315645009985  0.8578968592137961  0.49903641050801584          1.0000   
         C         C         1.0       0.7631683761626311  0.8707473101223793  0.5306619917911942 1.0000   
         C         C         1.0       0.7525161744175566  0.8824400089365947  0.5257511735212661 1.0000   
         C         C         1.0       0.7577786085092292  0.8429704000433792  0.42292641321216967          1.0000   
         C         C         1.0       0.6908788167280215  0.7855606320568841  0.43409422106952494          1.0000   
         C         C         1.0       0.6955470108703394  0.802432483342121   0.40686624979417196          1.0000   
         C         C         1.0       0.7168720777841927  0.8209173962909503  0.4025042714196479 1.0000   
         C         C         1.0       0.7340830218483873  0.8226373676862763  0.4265049674600855 1.0000   
         C         C         1.0       0.7280796899085374  0.8053878483079664  0.4557600109895021 1.0000   
         C         C         1.0       0.7077759530939597  0.7876728734655625  0.45971879855734016          1.0000   
         C         C         1.0       0.7774571894538419  0.8386105271299976  0.42630953534741206          1.0000   
         C         C         1.0       0.7971616565594337  0.8522979614484582  0.44524670042102577          1.0000   
         C         C         1.0       0.8122621234701168  0.8461918579843702  0.45363146421030254          1.0000   
         C         C         1.0       0.8081589463813634  0.8260341946853862  0.44026193376048867          1.0000   
         C         C         1.0       0.789869430915391   0.8124658325956101  0.4183392993554921 1.0000   
         C         C         1.0       0.7752468872387899  0.819026066346256   0.4103176292863651 1.0000   
         C         C         1.0       0.7563779409638024  0.842181175720151   0.34046890082515363          1.0000   
         C         C         1.0       0.7600603977740731  0.8518634904580648  0.30137082102478185          1.0000   
         C         C         1.0       0.7699171463406795  0.874150758460525   0.2994368800724583 1.0000   
         C         C         1.0       0.7774537108719513  0.8871210385573911  0.33544723944886584          1.0000   
         C         C         1.0       0.7749437763978022  0.8771409916608724  0.3735125997513382 1.0000   
         C         C         1.0       0.76298710540733    0.8547614289031261  0.3779084900305366 1.0000   
         H         H         1.0       0.7437144087635049  0.9287318330184073  0.5938012742021793 1.0000   
         H         H         1.0       0.7097467675385934  0.8620716514855382  0.5511998610890629 1.0000   
         H         H         1.0       0.6761833697859431  0.8587513414064214  0.568976131119326  1.0000   
         H         H         1.0       0.7076145294941573  0.9257974257363681  0.6086370924379578 1.0000   
         H         H         1.0       0.7411011734742244  0.8639408785006848  0.6075773531716612 1.0000   
         H         H         1.0       0.748124836705377   0.8600828586783165  0.6828307563678917 1.0000   
         H         H         1.0       0.7910103555428291  0.9301368473932647  0.6876007694953663 1.0000   
         H         H         1.0       0.7813845384681881  0.9324324274682142  0.6155943637592286 1.0000   
         H         H         1.0       0.7376560121318322  0.8921212309903652  0.48007444298483776          1.0000   
         H         H         1.0       0.7341468538344288  0.8652051334507248  0.4243418809845448 1.0000   
         H         H         1.0       0.7714123334979748  0.8484272738795051  0.5050248298806831 1.0000   
         H         H         1.0       0.7726770304388141  0.871938701312078   0.5562184522687963 1.0000   
         H         H         1.0       0.6819984848915176  0.8000418416732407  0.3882861008125098 1.0000   
         H         H         1.0       0.7197088789180477  0.8338916160190369  0.3820600132910742 1.0000   
         H         H         1.0       0.7409685788258314  0.806538338812649   0.4754125286379342 1.0000   
         H         H         1.0       0.7036290718684147  0.7763897743213348  0.48487143047802356          1.0000   
         H         H         1.0       0.8006048149117261  0.8683103063459627  0.4554672789074872 1.0000   
         H         H         1.0       0.8264406151398358  0.8578639660281386  0.4710767116251385 1.0000   
         H         H         1.0       0.7828066643072114  0.7951763006727123  0.4128063459624156 1.0000   
         H         H         1.0       0.761035347059795   0.807661904077773   0.39265276230787133          1.0000   
         H         H         1.0       0.7465790435755515  0.8242946866063237  0.3408476426435131 1.0000   
         H         H         1.0       0.7555379303097661  0.8413635836508019  0.27040979354907085          1.0000   
         H         H         1.0       0.7858013607235962  0.904462828001045   0.3351730731197965 1.0000   
         H         H         1.0       0.7820941436447063  0.8872975848940112  0.40142989540567675          1.0000   
         C         C         1.0       0.36262647428960104           0.4782962227488057 0.36263393274443523          1.0000   
         C         C         1.0       0.3705835551533708  0.4994799384392866  0.3796275193735879 1.0000   
         C         C         1.0       0.39234412833746035           0.5117489373290572 0.3919107222776216 1.0000   
         C         C         1.0       0.4053580275846482  0.5018088401307707  0.3925956939907211 1.0000   
         C         C         1.0       0.3966858258719366  0.48094812554928423           0.3761906491610842 1.0000   
         C         C         1.0       0.3755841385164744  0.4687940101046727  0.36033696725052544          1.0000   
         H         H         1.0       0.3617699821136543  0.5086560879846551  0.37843327399314564          1.0000   
         H         H         1.0       0.400759560861613   0.528502879819838   0.40137090099221145          1.0000   
         H         H         1.0       0.4072337068124054  0.4731921842795915  0.37404900251316275          1.0000   
         H         H         1.0       0.3707135155522613  0.45275261583414833           0.3469682591972664 1.0000   
         C         C         1.0       0.4224743092125972  0.4778960618937472  0.45515267932845443          1.0000   
         C         C         1.0       0.4363487731299178  0.4971498387170231  0.4339182447976992 1.0000   
         C         C         1.0       0.457924410246245   0.5032871882591278  0.433216835958818  1.0000   
         C         C         1.0       0.4656804524696916  0.49172135825880264           0.4553041479478101 1.0000   
         C         C         1.0       0.451409775750862   0.47312177689366525           0.4764176422368296 1.0000   
         C         C         1.0       0.4303379279975649  0.46665996276467503           0.4769009791114739 1.0000   
         C         C         1.0       0.4298020313041607  0.5139625389400548  0.41296388164708847          1.0000   
         C         C         1.0       0.4312369879877989  0.5283600941331968  0.454553264348524  1.0000   
         C         C         1.0       0.4518285625511969  0.5444901492405314  0.46826656211503387          1.0000   
         C         C         1.0       0.4551125464903828  0.5521478643905172  0.5093541726306658 1.0000   
         C         C         1.0       0.43770793309943185           0.5462208219153225 0.536556459875048  1.0000   
         C         C         1.0       0.4173020817010281  0.5331620356404577  0.5217516540839933 1.0000   
         C         C         1.0       0.41439482663049326           0.5241890661566541 0.48209052475139047          1.0000   
         C         C         1.0       0.4481680378488566  0.5169119186204884  0.3406572429837253 1.0000   
         C         C         1.0       0.45691571620399857           0.5280216829832206 0.30400497618107153          1.0000   
         C         C         1.0       0.464519886384044   0.5500450360977546  0.2993241272947273 1.0000   
         C         C         1.0       0.46231347769408404           0.5603729346015898 0.33383895554831405          1.0000   
         C         C         1.0       0.45106431978209044           0.5490788090923417 0.3693141864588069 1.0000   
         C         C         1.0       0.44428078054668074           0.5269669681621066 0.3744046529157951 1.0000   
         C         C         1.0       0.48077597895426083           0.5635317299754996 0.2598682941953102 1.0000   
         C         C         1.0       0.5437916087177134  0.5693602643327085  0.2795765331634498 1.0000   
         C         C         1.0       0.5277483787591855  0.5513529887139554  0.25877393084726286          1.0000   
         C         C         1.0       0.5073754645040592  0.5484675254416559  0.25470239024304125          1.0000   
         C         C         1.0       0.5020518413505435  0.5636463656205827  0.2709448786180065 1.0000   
         C         C         1.0       0.5175011770488168  0.5792085909843427  0.29778874576560543          1.0000   
         C         C         1.0       0.537901405811095   0.5816527539597032  0.30304504581906444          1.0000   
         C         C         1.0       0.4852715588821233  0.5875076723931552  0.2511838355050264 1.0000   
         C         C         1.0       0.4704826905332277  0.5942060011662318  0.26400375631187145          1.0000   
         C         C         1.0       0.4767262373067553  0.615894541496431   0.26946477124760493          1.0000   
         C         C         1.0       0.49754906121430587           0.6311363830474712 0.25823748207564434          1.0000   
         C         C         1.0       0.5107257900849759  0.625293252862324   0.23840695933108078          1.0000   
         C         C         1.0       0.5047104787141817  0.6037377825156778  0.23411964352089254          1.0000   
         C         C         1.0       0.4825066403506043  0.5594833933426564  0.17827481241890614          1.0000   
         C         C         1.0       0.4745394798057543  0.5538066349043657  0.13871450041430303          1.0000   
         C         C         1.0       0.4519364368580227  0.5377086351275573  0.13524818485610476          1.0000   
         C         C         1.0       0.43814507633685756           0.5325802497918232 0.1698588939005097 1.0000   
         C         C         1.0       0.4470915242104948  0.5404665849505877  0.2089367024288839 1.0000   
         C         C         1.0       0.469525963955991   0.5521535177398034  0.21475404811082136          1.0000   
         H         H         1.0       0.4045800144211725  0.4724195382804087  0.4526260905318336 1.0000   
         H         H         1.0       0.46944886635869115           0.5165428611525585 0.41639257040694444          1.0000   
         H         H         1.0       0.483097377144934   0.4978645211283169  0.4535339173814264 1.0000   
         H         H         1.0       0.42020839188007786           0.4510416243234761 0.4908512380213464 1.0000   
         H         H         1.0       0.46675334902533117           0.5487501082649857 0.45036217279343704          1.0000   
         H         H         1.0       0.47184891388203826           0.5617948552273347 0.5204437457714693 1.0000   
         H         H         1.0       0.4036062357302217  0.5289610163997526  0.5434699525190305 1.0000   
         H         H         1.0       0.39764000259296295           0.5105019417249395 0.4760758955716107 1.0000   
         H         H         1.0       0.4448206597801506  0.5001975494982676  0.34194848073660544          1.0000   
         H         H         1.0       0.4587737544900367  0.51737676776741    0.2809152736558889 1.0000   
         H         H         1.0       0.471013756885536   0.5775082739048125  0.33683411163238647          1.0000   
         H         H         1.0       0.4487031551585557  0.5586350180227686  0.3946502253791877 1.0000   
         H         H         1.0       0.532024366221217   0.540185410983154   0.2450434150143545 1.0000   
         H         H         1.0       0.49646778084494286           0.5344689070962816 0.2346101233121433 1.0000   
         H         H         1.0       0.5122878091309512  0.5869933016864598  0.32001871804422366          1.0000   
         H         H         1.0       0.5494162569164337  0.593721350732717   0.3225481109696005 1.0000   
         H         H         1.0       0.4550325778871546  0.5818564221572772  0.2763509068707721 1.0000   
         H         H         1.0       0.4651155238219908  0.6209065093312346  0.28067408971401553          1.0000   
         H         H         1.0       0.5282361801268938  0.6361305115005841  0.2315086480126775 1.0000   
         H         H         1.0       0.5175607697386787  0.6005678614917992  0.22313442127983235          1.0000   
         H         H         1.0       0.49993245908822925           0.5704078192759574 0.1802861615368437 1.0000   
         H         H         1.0       0.48513361508487723           0.5594506257285944 0.11186326551512317          1.0000   
         H         H         1.0       0.4202945955902241  0.5215053446078971  0.16565510741973136          1.0000   
         H         H         1.0       0.43548215744414454           0.5363981107819825 0.23362242064980102          1.0000   
         C         C         1.0       0.380721421117007   0.48256695608955236           0.8125418598972599 1.0000   
         C         C         1.0       0.3855745906657722  0.4992729719165677  0.8397439406180864 1.0000   
         C         C         1.0       0.4039068860214702  0.5072460896012431  0.8646578784635439 1.0000   
         C         C         1.0       0.4179026350803384  0.4982306291344776  0.8634766479590434 1.0000   
         C         C         1.0       0.41267332091082165           0.482108116950022  0.8347822946915436 1.0000   
         C         C         1.0       0.39328975332198585           0.4731314360940096 0.8107775505870464 1.0000   
         H         H         1.0       0.3755026277542931  0.5072831224751684  0.8413115800453173 1.0000   
         H         H         1.0       0.41012129661896124           0.5210578244868445 0.8847307052440863 1.0000   
         H         H         1.0       0.423840377497426   0.4764481402627669  0.8308825250903085 1.0000   
         H         H         1.0       0.38925861238446763           0.4576137012538771 0.7943290310111623 1.0000   
         C         C         1.0       0.4283619187031611  0.47150142185622657           0.9207063208201947 1.0000   
         C         C         1.0       0.44483612512740456           0.49085351836199487          0.9068406251828157 1.0000   
         C         C         1.0       0.4658491759443563  0.49546081279051785           0.9155072909657374 1.0000   
         C         C         1.0       0.4701178112397564  0.4821793672474518  0.9368059309023139 1.0000   
         C         C         1.0       0.4528767522589741  0.46091199528317467           0.9456035622119056 1.0000   
         C         C         1.0       0.43195309109880237           0.45604443436500547          0.9395246024436634 1.0000   
         C         C         1.0       0.4397823501257933  0.5088580212512926  0.8916745356495591 1.0000   
         C         C         1.0       0.43940484095237503           0.5202332682651871 0.9347579798628046 1.0000   
         C         C         1.0       0.45841815830255417           0.5375839616826201 0.9500749610522049 1.0000   
         C         C         1.0       0.459123274807566   0.5464067470556278  0.9873748049206615 1.0000   
         C         C         1.0       0.44058928456458235           0.5369339589038459 0.01353033901047492          1.0000   
         C         C         1.0       0.42128645625651295           0.5187077963167086 0.9984788761204396 1.0000   
         C         C         1.0       0.4205531126068838  0.5108455459635587  0.959166820879432  1.0000   
         C         C         1.0       0.47017717866558534           0.521432465185511  0.8318161471250779 1.0000   
         C         C         1.0       0.48447817937820703           0.5359903621220341 0.8040479823998407 1.0000   
         C         C         1.0       0.48358845335609324           0.5550770312141806 0.796338206653771  1.0000   
         C         C         1.0       0.4705332779869828  0.5600640337950739  0.8215393291522854 1.0000   
         C         C         1.0       0.456108206604425   0.5443192177524449  0.8500913568255379 1.0000   
         C         C         1.0       0.4571616979809298  0.5254220732680115  0.8568398383705258 1.0000   
         C         C         1.0       0.49748427987163774           0.570399921537656  0.7591950428320677 1.0000   
         C         C         1.0       0.561221964301608   0.5814629347612786  0.7204470640588491 1.0000   
         C         C         1.0       0.5488175484507396  0.5859253269918809  0.6924964175962698 1.0000   
         C         C         1.0       0.5281418575577893  0.5807956433134441  0.7029342016502967 1.0000   
         C         C         1.0       0.5209749095443991  0.5732730653558488  0.7448872889812109 1.0000   
         C         C         1.0       0.5334655798975784  0.5695254268241233  0.773118464606435  1.0000   
         C         C         1.0       0.5539210317158417  0.5745235035451182  0.761810888878459  1.0000   
         C         C         1.0       0.506817061240402   0.5952643533004702  0.773159616302473  1.0000   
         C         C         1.0       0.5062276761789865  0.609667814598276   0.743879205715841  1.0000   
         C         C         1.0       0.5151037302027757  0.6311759790140935  0.7538518862473333 1.0000   
         C         C         1.0       0.5267486233040809  0.6400058625858711  0.7905109403096281 1.0000   
         C         C         1.0       0.5269713565160046  0.6256096641866309  0.8185213801384322 1.0000   
         C         C         1.0       0.5172003388450436  0.6037355086351203  0.8110964446211834 1.0000   
         C         C         1.0       0.47888965417655616           0.5425038034694735 0.693739379352761  1.0000   
         C         C         1.0       0.46511284087882154           0.5346537260062169 0.6598880071423605 1.0000   
         C         C         1.0       0.4514248452147958  0.5421217873663317  0.6526429392669735 1.0000   
         C         C         1.0       0.45115689392866687           0.5571066931876597 0.6807153424411848 1.0000   
         C         C         1.0       0.46420370604211125           0.5652640777119702 0.7151186580802813 1.0000   
         C         C         1.0       0.4794412408153819  0.5587073008233722  0.722288647100808  1.0000   
         H         H         1.0       0.41174274374977865           0.4666399055359137 0.9119088805071196 1.0000   
         H         H         1.0       0.4793830808326989  0.5114164343167825  0.9111366131570507 1.0000   
         H         H         1.0       0.48662289165291556           0.4851283195905764 0.9416474090612637 1.0000   
         H         H         1.0       0.41897362430155544           0.43969794504385346          0.9476645915017666 1.0000   
         H         H         1.0       0.4730943234290142  0.5441834551802769  0.9321421025674397 1.0000   
         H         H         1.0       0.4750068147406286  0.5591464353948536  0.0009371191288494845        1.0000   
         H         H         1.0       0.4058158657771439  0.5110590943942116  0.0168717115325313 1.0000   
         H         H         1.0       0.40536902318099655           0.49662627589006514          0.9490576176821411 1.0000   
         H         H         1.0       0.47066499951662016           0.5066909903828415 0.8345928541357645 1.0000   
         H         H         1.0       0.49422280558977816           0.5303539465136741 0.7853076477381571 1.0000   
         H         H         1.0       0.46861554021123814           0.574239152695269  0.8134102482655441 1.0000   
         H         H         1.0       0.4449661922842404  0.5474660987241577  0.8696554875197751 1.0000   
         H         H         1.0       0.556340553277662   0.5945971467118791  0.6616059227156632 1.0000   
         H         H         1.0       0.5202353690206352  0.5861052366259775  0.6811008718084676 1.0000   
         H         H         1.0       0.5277612106717926  0.5639025420698619  0.8040516990302533 1.0000   
         H         H         1.0       0.5645955306372663  0.5718245541015413  0.7814976085197173 1.0000   
         H         H         1.0       0.49784957611005665           0.6020245365064973 0.713702215317109  1.0000   
         H         H         1.0       0.5133904905881767  0.6412599495897722  0.7318014643192637 1.0000   
         H         H         1.0       0.534663141003501   0.6317744964804312  0.8487172696854911 1.0000   
         H         H         1.0       0.519186730577384   0.5933164159464005  0.8346248944302553 1.0000   
         H         H         1.0       0.49021565571542564           0.5366476138492272 0.6972323620629634 1.0000   
         H         H         1.0       0.4651747123922934  0.5226260680647147  0.6388562829742164 1.0000   
         H         H         1.0       0.44190762085022406           0.5646406067705219 0.6732215965713072 1.0000   
         H         H         1.0       0.46092312306013977           0.5751834513920449 0.7355554038284473 1.0000   
         C         C         1.0       0.5199921693058595  0.3757398665014716  0.11967119196197289          1.0000   
         C         C         1.0       0.539084643443023   0.39076070057646944           0.09931755761984914          1.0000   
         C         C         1.0       0.5422277877607694  0.4106946447447076  0.08822674259396512          1.0000   
         C         C         1.0       0.5258626981349698  0.4151550988143206  0.09168259104078451          1.0000   
         C         C         1.0       0.507971150092138   0.4020252723844649  0.11547457569534789          1.0000   
         C         C         1.0       0.5044617456805984  0.3817843133282032  0.12697870888180535          1.0000   
         H         H         1.0       0.5527255867009818  0.3884214813713571  0.09264369279754706          1.0000   
         H         H         1.0       0.5577887350412974  0.4203398745467267  0.0744438933890056 1.0000   
         H         H         1.0       0.4966266771044777  0.4080147330790197  0.12336653520667423          1.0000   
         H         H         1.0       0.48929989372170535           0.37007457880592626          0.1421244522897889 1.0000   
         C         C         1.0       0.48910251701570323           0.419365414675844  0.046696797887344085         1.0000   
         C         C         1.0       0.5070192055471109  0.4373051461101736  0.06609289187916245          1.0000   
         C         C         1.0       0.5064784673059823  0.4565246575784694  0.0709982889692157 1.0000   
         C         C         1.0       0.4896220708796909  0.45760433944058315           0.05373616568002978          1.0000   
         C         C         1.0       0.4723698705321577  0.44007712199003524           0.034764468636840566         1.0000   
         C         C         1.0       0.4719005994748129  0.42121264772847083           0.031168845860581194         1.0000   
         C         C         1.0       0.5286947053293779  0.4373976002139533  0.07551050785598123          1.0000   
         C         C         1.0       0.5394457554762527  0.44327106915554926           0.02730274438182226          1.0000   
         C         C         1.0       0.5491739467135387  0.46482933985991165           0.015749154530256604         1.0000   
         C         C         1.0       0.5559453996787156  0.4714967259744973  0.9749609039761664 1.0000   
         C         C         1.0       0.5520694985842736  0.45627792930282607           0.943610623644889  1.0000   
         C         C         1.0       0.5420285941982383  0.4343419328703439  0.955032551116879  1.0000   
         C         C         1.0       0.5360621248453796  0.42863867707198616           0.9967149846685589 1.0000   
         C         C         1.0       0.5340251196176545  0.45479515416991056           0.1496913129104975 1.0000   
         C         C         1.0       0.5469536507416861  0.466417766465438   0.18276903424923205          1.0000   
         C         C         1.0       0.5700137697633169  0.47639142844473314           0.179586317802043  1.0000   
         C         C         1.0       0.5786102148875099  0.47482343926765247           0.14164207624530123          1.0000   
         C         C         1.0       0.5656784348955862  0.4649601929838453  0.10877582685718003          1.0000   
         C         C         1.0       0.5435978380370743  0.4535578675395045  0.11184278295923575          1.0000   
         C         C         1.0       0.5853261544734987  0.4895747934031486  0.21970430112197237          1.0000   
         C         C         1.0       0.5787823009840819  0.5479141294167902  0.236130821252238  1.0000   
         C         C         1.0       0.568608303850218   0.5308980349618718  0.26324313799605903          1.0000   
         C         C         1.0       0.5687655109275345  0.5117607263324299  0.2558968416745075 1.0000   
         C         C         1.0       0.5820941906019009  0.5108790381181932  0.22460380901317323          1.0000   
         C         C         1.0       0.5901832181025907  0.527437382125029   0.19466123718890957          1.0000   
         C         C         1.0       0.588122492805516   0.5451147964667026  0.20064724037724896          1.0000   
         C         C         1.0       0.6105132911534101  0.4947521094066847  0.2139860854126942 1.0000   
         C         C         1.0       0.6151543386538015  0.4776569953557135  0.20655650300202238          1.0000   
         C         C         1.0       0.6363626209785719  0.4820442794835526  0.20023059075639266          1.0000   
         C         C         1.0       0.6529068230175619  0.503373093834826   0.20384368909775943          1.0000   
         C         C         1.0       0.6486748596911139  0.5194726253468108  0.21717185593455776          1.0000   
         C         C         1.0       0.6284793523148965  0.5154468141207599  0.2204968147801265 1.0000   
         C         C         1.0       0.5903891851615131  0.48609127809145203           0.3002704293765288 1.0000   
         C         C         1.0       0.5839362573799265  0.4757889481709893  0.3378870876617462 1.0000   
         C         C         1.0       0.5684852228299769  0.454010954199355   0.34099485527505174          1.0000   
         C         C         1.0       0.5593176095518545  0.4429858738221765  0.3039495512482501 1.0000   
         C         C         1.0       0.5633574841503437  0.45247870519827793           0.26530318768570194          1.0000   
         C         C         1.0       0.5786044852544732  0.4753183730415299  0.2632546574619833 1.0000   
         H         H         1.0       0.4903437384813017  0.40512254407477066           0.04269354781992068          1.0000   
         H         H         1.0       0.5206226820570814  0.4707484457563829  0.08492202306924605          1.0000   
         H         H         1.0       0.4907430475706218  0.47342008655365003           0.0529541937117049 1.0000   
         H         H         1.0       0.4598014295406034  0.40838621830540267           0.012176115408339072         1.0000   
         H         H         1.0       0.5527902204098983  0.4777996984335554  0.03866657024828972          1.0000   
         H         H         1.0       0.5621164922179145  0.4881890543219361  0.9670927676839866 1.0000   
         H         H         1.0       0.5395464793511395  0.4218994405393921  0.9318581841513756 1.0000   
         H         H         1.0       0.5282405436035417  0.41148472937923525           0.002446951927728813         1.0000   
         H         H         1.0       0.5164487409871801  0.4469736904145992  0.15339906217037266          1.0000   
         H         H         1.0       0.5409106298214859  0.4688273329636936  0.2115553988449839 1.0000   
         H         H         1.0       0.5947545257181364  0.47985858412957655           0.1355932737875572 1.0000   
         H         H         1.0       0.5744355451677241  0.4651962883944226  0.08049822942301005          1.0000   
         H         H         1.0       0.5582184905408519  0.5311248559302817  0.288117961694123  1.0000   
         H         H         1.0       0.5603271159363116  0.4975668926695474  0.2785715694580889 1.0000   
         H         H         1.0       0.5994326701270364  0.5260319954372518  0.17002857354868417          1.0000   
         H         H         1.0       0.5931989956151663  0.5576493741610632  0.17724477905857708          1.0000   
         H         H         1.0       0.6025833017589493  0.46071067214514577           0.20421259973372413          1.0000   
         H         H         1.0       0.6401575222421939  0.46878918171598466           0.19573681353788835          1.0000   
         H         H         1.0       0.6618504416412736  0.536759796219324   0.2202400330882702 1.0000   
         H         H         1.0       0.6247445593956695  0.5273332784526323  0.23279857927440017          1.0000   
         H         H         1.0       0.6024465399168883  0.5032929718033903  0.29692884060471186          1.0000   
         H         H         1.0       0.5905534293191596  0.48573330475088233           0.36526493385614495          1.0000   
         H         H         1.0       0.5493511301640053  0.4257827353673224  0.3054302366047895 1.0000   
         H         H         1.0       0.5552445444336184  0.4437235167022256  0.2362882113355664 1.0000   
         C         C         1.0       0.5110954512927204  0.3735157789479499  0.6449903776525828 1.0000   
         C         C         1.0       0.5303134355579434  0.38640773248260124           0.622674328313004  1.0000   
         C         C         1.0       0.5323746085866771  0.40373173105638405           0.6012992526641419 1.0000   
         C         C         1.0       0.5179737523640883  0.41127110580220017           0.6059469834414348 1.0000   
         C         C         1.0       0.5016416984116785  0.4011892987453286  0.6348477698755882 1.0000   
         C         C         1.0       0.49733921130157827           0.3816159467599517 0.6523489541003054 1.0000   
         H         H         1.0       0.5422304488019536  0.38141763266400336           0.6190342739791926 1.0000   
         H         H         1.0       0.5479970399906542  0.4124917433220124  0.5845015901340369 1.0000   
         H         H         1.0       0.4917727190950755  0.40837807805505627           0.6437347093795582 1.0000   
         H         H         1.0       0.48161713055459393           0.3719732388419512 0.667880713447116  1.0000   
         C         C         1.0       0.48678329677435156           0.424452488290935  0.5647009467759521 1.0000   
         C         C         1.0       0.5060816934948442  0.440095471996024   0.5827268224039285 1.0000   
         C         C         1.0       0.5090750861334337  0.4613170705241149  0.5898645871239531 1.0000   
         C         C         1.0       0.49306860808831554           0.4663237570237602 0.5803969152438027 1.0000   
         C         C         1.0       0.4752413432231544  0.4513739925006695  0.558376572307813  1.0000   
         C         C         1.0       0.4720851017979141  0.43081302719633335           0.5499243788656618 1.0000   
         C         C         1.0       0.5257210076140517  0.43476512113171967           0.5854645850386436 1.0000   
         C         C         1.0       0.5344999069701465  0.43870977626271035           0.5380894995637177 1.0000   
         C         C         1.0       0.545620372613735   0.45901733100389636           0.5185173426540829 1.0000   
         C         C         1.0       0.5491083599476989  0.46065474195691447           0.4751991653224541 1.0000   
         C         C         1.0       0.5400161135720528  0.44209649304398263           0.45095286651060534          1.0000   
         C         C         1.0       0.5310890263838908  0.42230367459260415           0.47057725384435767          1.0000   
         C         C         1.0       0.527630907244277   0.4209025889006709  0.5129875243148706 1.0000   
         C         C         1.0       0.5370364182472039  0.45358021109847135           0.6588908627921544 1.0000   
         C         C         1.0       0.552100687673621   0.46830176887690983           0.6844522010745225 1.0000   
         C         C         1.0       0.5741337462816888  0.47840364120714507           0.673729662420743  1.0000   
         C         C         1.0       0.581107508193815   0.47414174765588024           0.6354003396058344 1.0000   
         C         C         1.0       0.5650629373408013  0.45905838063035315           0.6103173362625511 1.0000   
         C         C         1.0       0.5432935409984152  0.45081750040505947           0.6182007790739918 1.0000   
         C         C         1.0       0.592428092109077   0.494392200290259   0.7065291553445692 1.0000   
         C         C         1.0       0.585956938008583   0.5519621202011191  0.6878857981914374 1.0000   
         C         C         1.0       0.5731449141038583  0.537330362023491   0.7183877214675732 1.0000   
         C         C         1.0       0.5766537942395672  0.5199695082212789  0.728054418093457  1.0000   
         C         C         1.0       0.5906065235962009  0.515862093098387   0.7042525720177993 1.0000   
         C         C         1.0       0.5997572415291941  0.5290692589919767  0.6688507259076008 1.0000   
         C         C         1.0       0.5978921115068748  0.547058607528277   0.6606751207556194 1.0000   
         C         C         1.0       0.6169495328826685  0.49844206344163844           0.7031641572589453 1.0000   
         C         C         1.0       0.6202200485639887  0.4817437859396357  0.6918761167120608 1.0000   
         C         C         1.0       0.6404600588067783  0.4847401457727441  0.6834892222278992 1.0000   
         C         C         1.0       0.6583130820940244  0.5049640459275045  0.6865962842863562 1.0000   
         C         C         1.0       0.6564136181016423  0.522218772342251   0.7005508499916392 1.0000   
         C         C         1.0       0.6358662673308005  0.5190112619244147  0.709073877992772  1.0000   
         C         C         1.0       0.5960306890968416  0.4989903855103923  0.7889150951566647 1.0000   
         C         C         1.0       0.5928957952242491  0.490061094417245   0.8280870454517296 1.0000   
         C         C         1.0       0.5811434696204266  0.46825271831614995           0.8337106136528646 1.0000   
         C         C         1.0       0.5707903485643043  0.4542347714553534  0.8002964155725809 1.0000   
         C         C         1.0       0.5775590840514635  0.46320177260989664           0.7611033402708443 1.0000   
         C         C         1.0       0.5884315440100795  0.4855581229988533  0.753903138725048  1.0000   
         H         H         1.0       0.4818010630841784  0.4073869358746234  0.5578547276467574 1.0000   
         H         H         1.0       0.5234418713767643  0.47221152533430494           0.6057364248183582 1.0000   
         H         H         1.0       0.4938920031796841  0.4815601771849385  0.5901131174636202 1.0000   
         H         H         1.0       0.4574416457769006  0.41847379358598125           0.5337110726368063 1.0000   
         H         H         1.0       0.5499341676180283  0.4734491008032379  0.5365594335422181 1.0000   
         H         H         1.0       0.5563077845904416  0.47580108892779926           0.4571877826534917 1.0000   
         H         H         1.0       0.5228535840955801  0.4076461956123544  0.4507654596795996 1.0000   
         H         H         1.0       0.5157348282769761  0.40463752660708074           0.5237515261904898 1.0000   
         H         H         1.0       0.5200061418328978  0.4495562251097955  0.659513401729098  1.0000   
         H         H         1.0       0.5472721253151194  0.47330386614567216           0.7132479035624344 1.0000   
         H         H         1.0       0.5975714883009046  0.4797250952192315  0.6261997328419412 1.0000   
         H         H         1.0       0.5710792684767683  0.4538327612489794  0.5826038647780012 1.0000   
         H         H         1.0       0.5608355254285057  0.5402538316744484  0.7369331428941605 1.0000   
         H         H         1.0       0.5663610313826702  0.5078069697770149  0.7517868600178599 1.0000   
         H         H         1.0       0.6076518463895642  0.5242583013260189  0.6440284995668487 1.0000   
         H         H         1.0       0.6061212561773269  0.5567743951112322  0.6338916314065514 1.0000   
         H         H         1.0       0.6063294762452874  0.46538995536902056           0.6883084703015998 1.0000   
         H         H         1.0       0.641031797906496   0.4710297571693501  0.6725472559422199 1.0000   
         H         H         1.0       0.6720444583005584  0.5390337903339365  0.7046971133603506 1.0000   
         H         H         1.0       0.6346336835190841  0.5325973928348707  0.7219106066775325 1.0000   
         H         H         1.0       0.6053216424541465  0.5166707830511879  0.7869051662615566 1.0000   
         H         H         1.0       0.5994224518413316  0.5022520758501606  0.8519768619100696 1.0000   
         H         H         1.0       0.5607603836243732  0.4364896360344601  0.7998329581221907 1.0000   
         H         H         1.0       0.5743572203333626  0.4524078450591378  0.7349400574888851 1.0000   
         C         C         1.0       0.8458500116549476  0.5259988811730062  0.21287499344732377          1.0000   
         C         C         1.0       0.8250653759145511  0.519192517806485   0.2282986738754013 1.0000   
         C         C         1.0       0.8211050328323802  0.5348890375221999  0.24282092046909465          1.0000   
         C         C         1.0       0.8354616329766975  0.557019674075811   0.23917522514543393          1.0000   
         C         C         1.0       0.8553287480640734  0.5634866122730084  0.21818594962000865          1.0000   
         C         C         1.0       0.8598271731020246  0.5478764919904381  0.20350769005734   1.0000   
         H         H         1.0       0.8140789790387061  0.502093795113326   0.23010900719867228          1.0000   
         H         H         1.0       0.8048190190363705  0.5308294299830001  0.2527556365994912 1.0000   
         H         H         1.0       0.865763793537643   0.580626290696122   0.21277917406639518          1.0000   
         H         H         1.0       0.8754018921062936  0.5542589373227739  0.1856724761009745 1.0000   
         C         C         1.0       0.8638299358535775  0.6009312482653688  0.2883971429309036 1.0000   
         C         C         1.0       0.8464963223293466  0.5982865012389574  0.26468436971240583          1.0000   
         C         C         1.0       0.8450275118585053  0.6165563094327817  0.2539886677703854 1.0000   
         C         C         1.0       0.8620424649963034  0.6365028828234605  0.2652160550348322 1.0000   
         C         C         1.0       0.8801154835163836  0.6392500385581407  0.28535310295333066          1.0000   
         C         C         1.0       0.8812572467373109  0.6211459028528497  0.2976936378844869 1.0000   
         C         C         1.0       0.8273728298945029  0.5735195068102743  0.25696005222732143          1.0000   
         C         C         1.0       0.816380231069705   0.5687267194726077  0.30121663332698534          1.0000   
         C         C         1.0       0.8029199056673376  0.576769645677727   0.31421816952687026          1.0000   
         C         C         1.0       0.7937892353239469  0.574299709960205   0.3541659369561803 1.0000   
         C         C         1.0       0.8003046812263588  0.5642834827509653  0.3848135589315323 1.0000   
         C         C         1.0       0.8137778128807237  0.5564140723657808  0.3744333048989693 1.0000   
         C         C         1.0       0.8221037790656973  0.5588326865552088  0.3341961091813894 1.0000   
         C         C         1.0       0.8221767176460729  0.5796791537148466  0.17696941531758562          1.0000   
         C         C         1.0       0.8098864000648952  0.5784889022303722  0.14355525723834353          1.0000   
         C         C         1.0       0.7881964330985842  0.5705345415850613  0.14659455504446298          1.0000   
         C         C         1.0       0.7783662088858303  0.562982454310957   0.18556879606595095          1.0000   
         C         C         1.0       0.7905560492975503  0.5630454431861578  0.21957080505854348          1.0000   
         C         C         1.0       0.8127773731920501  0.5726556055710967  0.21556241852820146          1.0000   
         C         C         1.0       0.7731202070995483  0.5697911136097801  0.10773512857042984          1.0000   
         C         C         1.0       0.7933397771395445  0.638610459174943   0.09420502515643542          1.0000   
         C         C         1.0       0.8013599812689834  0.6288236533811968  0.06818486139539784          1.0000   
         C         C         1.0       0.7957853168426705  0.6076927125119216  0.07253802392880512          1.0000   
         C         C         1.0       0.780768099450079   0.5943090100649981  0.10159689366838724          1.0000   
         C         C         1.0       0.7743101301734975  0.6045246032637014  0.1298776566704402 1.0000   
         C         C         1.0       0.7803538091003115  0.6263916280161795  0.12735619148917646          1.0000   
         C         C         1.0       0.7473486539153709  0.5524963060071298  0.11421362706401245          1.0000   
         C         C         1.0       0.7396569741330032  0.5307753568688873  0.12482871412405837          1.0000   
         C         C         1.0       0.7168705495695793  0.5156034491468561  0.12936329955731896          1.0000   
         C         C         1.0       0.7017455890883769  0.52229718542198    0.12604749938037282          1.0000   
         C         C         1.0       0.7095526930871886  0.5438707620328146  0.11741306982932187          1.0000   
         C         C         1.0       0.7315317660904758  0.558415907742917   0.11081086345397098          1.0000   
         C         C         1.0       0.7672732527542027  0.5609647944527596  0.027989696858837922         1.0000   
         C         C         1.0       0.7719653210293074  0.5552842177018127  0.9900686555579419 1.0000   
         C         C         1.0       0.783534813387078   0.5438242691804842  0.9876654575610005 1.0000   
         C         C         1.0       0.7904480111899286  0.5395377974417074  0.02391299388837404          1.0000   
         C         C         1.0       0.7877660536172785  0.5477345781951047  0.062433273497983124         1.0000   
         C         C         1.0       0.7762629410689469  0.5588668292900673  0.06513160676043646          1.0000   
         H         H         1.0       0.8647186353716572  0.5861494118493195  0.29668780191677446          1.0000   
         H         H         1.0       0.8307482039768994  0.6157725592756074  0.2413764691835004 1.0000   
         H         H         1.0       0.8593463321680795  0.6502438136639019  0.2608260824952784 1.0000   
         H         H         1.0       0.8956293461963839  0.6241837294064109  0.31603524100949715          1.0000   
         H         H         1.0       0.7987205306752223  0.5870035713204707  0.29428746627086344          1.0000   
         H         H         1.0       0.782449276846656   0.5797109846068242  0.35882739792883817          1.0000   
         H         H         1.0       0.817786925326994   0.5477140566736904  0.39599434426894836          1.0000   
         H         H         1.0       0.830508549318961   0.5504512444458897  0.3244878142058502 1.0000   
         H         H         1.0       0.8395404801877339  0.5877040949197113  0.17693568689336103          1.0000   
         H         H         1.0       0.817620009557752   0.5846155743522315  0.11386580125111669          1.0000   
         H         H         1.0       0.7618136308277416  0.5582213584102986  0.19282929484092745          1.0000   
         H         H         1.0       0.7813442489627217  0.5566383402113699  0.24652397127657538          1.0000   
         H         H         1.0       0.811307057839747   0.6378003279763552  0.04288616023828147          1.0000   
         H         H         1.0       0.8032152187527749  0.6008274207052593  0.05277141133731137          1.0000   
         H         H         1.0       0.7616872241828797  0.5943722343104056  0.1523471133868747 1.0000   
         H         H         1.0       0.7741426156639465  0.6330292527038868  0.1487452671765646 1.0000   
         H         H         1.0       0.7515048808556422  0.5255062058283121  0.12878994695590015          1.0000   
         H         H         1.0       0.7115593308240225  0.4981097824267171  0.13058265478414083          1.0000   
         H         H         1.0       0.6995125989896305  0.550645005366107   0.11155764923085706          1.0000   
         H         H         1.0       0.7361617534319772  0.5748903983070892  0.10044566317998736          1.0000   
         H         H         1.0       0.7598105806836908  0.5711448313586635  0.02859816433220931          1.0000   
         H         H         1.0       0.7671859502280922  0.5602798197203952  0.9607912541848284 1.0000   
         H         H         1.0       0.80233804646962    0.533264479526552   0.023221446216846863         1.0000   
         H         H         1.0       0.7965479564478979  0.5456188430012991  0.089621666752867  1.0000   
         C         C         1.0       0.8682199701050305  0.552129930524475   0.6864870336991239 1.0000   
         C         C         1.0       0.8472605179751087  0.5406073369713197  0.7037952849470609 1.0000   
         C         C         1.0       0.8406757521732741  0.5524174938843448  0.7301786739110291 1.0000   
         C         C         1.0       0.854056017887156   0.5748553949174525  0.7369573707163545 1.0000   
         C         C         1.0       0.8753844139122737  0.5852076317568852  0.7198538081268043 1.0000   
         C         C         1.0       0.8816009816450234  0.5741062994631587  0.6926169815487822 1.0000   
         H         H         1.0       0.8378963022324132  0.5236191570819637  0.6954723633141981 1.0000   
         H         H         1.0       0.8248833867574383  0.5453156992502258  0.7439910925228291 1.0000   
         H         H         1.0       0.8854939314173171  0.6022076532892391  0.7238421617786243 1.0000   
         H         H         1.0       0.8963329166456524  0.5809964731191275  0.6758275382691047 1.0000   
         C         C         1.0       0.8793563065560351  0.616184112720773   0.7992018366176342 1.0000   
         C         C         1.0       0.860631599336928   0.6114030299290965  0.776804092312009  1.0000   
         C         C         1.0       0.8570072156014772  0.6283456345696495  0.76654582990208   1.0000   
         C         C         1.0       0.8714640810493489  0.6500273152433135  0.777990718380303  1.0000   
         C         C         1.0       0.8912461099208867  0.6554703217398402  0.7991873537185528 1.0000   
         C         C         1.0       0.8938926413677775  0.6376870124913406  0.8101348149839207 1.0000   
         C         C         1.0       0.8443606976893989  0.5874126427790841  0.7620702596613556 1.0000   
         C         C         1.0       0.8329585540944805  0.5754704086413973  0.8055048388260214 1.0000   
         C         C         1.0       0.8203032173140584  0.5823383117123563  0.8285216791958765 1.0000   
         C         C         1.0       0.8127128713433556  0.5749208892641959  0.8682301731759869 1.0000   
         C         C         1.0       0.8198209065585452  0.56242753654004    0.8890627303103513 1.0000   
         C         C         1.0       0.8333730450642387  0.5563041323099666  0.8676017533408777 1.0000   
         C         C         1.0       0.840001034453667   0.5626313548960339  0.8271898641330137 1.0000   
         C         C         1.0       0.8350904148775415  0.5967516830039657  0.6886980303212002 1.0000   
         C         C         1.0       0.8212128962518643  0.5955563972469624  0.6585046992049396 1.0000   
         C         C         1.0       0.7988813860304768  0.5848293854425357  0.6634757466439628 1.0000   
         C         C         1.0       0.7901217819895314  0.574384895065648   0.7024433678776765 1.0000   
         C         C         1.0       0.8038587579085444  0.5738367904610053  0.7319253912352403 1.0000   
         C         C         1.0       0.8262889168427383  0.5850475885311097  0.7269492124125603 1.0000   
         C         C         1.0       0.7817319156577053  0.5844598352756929  0.6323627819793924 1.0000   
         C         C         1.0       0.7971700855500866  0.6519493839762985  0.6626613567300624 1.0000   
         C         C         1.0       0.8087791773326134  0.6487253828910977  0.6329585460447537 1.0000   
         C         C         1.0       0.8039951690319797  0.6277766031831367  0.623651959389045  1.0000   
         C         C         1.0       0.7874610669577994  0.6096195588187642  0.6423740286526628 1.0000   
         C         C         1.0       0.7777064512394702  0.6132555543942824  0.677311015226811  1.0000   
         C         C         1.0       0.7815380011853498  0.6341708132041453  0.685741708605809  1.0000   
         C         C         1.0       0.7566537455881751  0.566143530289195   0.6314389156536998 1.0000   
         C         C         1.0       0.7491490274405277  0.543918508515215   0.6395608189545178 1.0000   
         C         C         1.0       0.7280320202932228  0.5281569901507152  0.6350113053151684 1.0000   
         C         C         1.0       0.7122906703702901  0.5337957628014267  0.6253560407546994 1.0000   
         C         C         1.0       0.7193124030080454  0.555042837981746   0.6150960622297885 1.0000   
         C         C         1.0       0.7407564600834392  0.5709748519320302  0.6206246360649514 1.0000   
         C         C         1.0       0.7821520600245365  0.5922241345004104  0.5512561479247455 1.0000   
         C         C         1.0       0.7898379587550065  0.5927875887238665  0.5101891907077272 1.0000   
         C         C         1.0       0.801881186678683   0.5823962287298188  0.5022993612031478 1.0000   
         C         C         1.0       0.8031614994971058  0.5697522588011292  0.5338789843244169 1.0000   
         C         C         1.0       0.7953068846523473  0.5685644278066836  0.5744557836837565 1.0000   
         C         C         1.0       0.7862270100222865  0.5813741663622082  0.5838007838141922 1.0000   
         H         H         1.0       0.8836640231027314  0.6039586730117728  0.8085401937914789 1.0000   
         H         H         1.0       0.8422809025909609  0.6253102021976685  0.7477446467572267 1.0000   
         H         H         1.0       0.865915193889952   0.6610062635257703  0.7711785508857364 1.0000   
         H         H         1.0       0.908066030168922   0.6412961015469868  0.8277791630890635 1.0000   
         H         H         1.0       0.8177922294068258  0.5944990905450503  0.8147024843523745 1.0000   
         H         H         1.0       0.8035097426167652  0.5816898018571027  0.8854317269688505 1.0000   
         H         H         1.0       0.8357871518344608  0.5441082274237036  0.8805782420037416 1.0000   
         H         H         1.0       0.8507250221898588  0.5571194958523967  0.8123163004583339 1.0000   
         H         H         1.0       0.8525010577110672  0.6070160901010384  0.682950071865078  1.0000   
         H         H         1.0       0.8267411516060503  0.6009361658826735  0.6270946866601513 1.0000   
         H         H         1.0       0.772395699190537   0.5654753725429155  0.7097009741068308 1.0000   
         H         H         1.0       0.7962581752599551  0.5648616145939683  0.76142074427119   1.0000   
         H         H         1.0       0.8210136144415595  0.6631567724903578  0.618357378920719  1.0000   
         H         H         1.0       0.8125575138728848  0.6247559742195719  0.6003567359537978 1.0000   
         H         H         1.0       0.7640648166759081  0.6004374655418492  0.6922527449609307 1.0000   
         H         H         1.0       0.7713289321069909  0.6363923371247273  0.7086758632981179 1.0000   
         H         H         1.0       0.7612965539104757  0.5392653206457728  0.650375727745374  1.0000   
         H         H         1.0       0.7228777239010759  0.5123780655126332  0.6458344715427007 1.0000   
         H         H         1.0       0.7077142760908216  0.5599270092548124  0.6066957222555449 1.0000   
         H         H         1.0       0.7432636812654791  0.5867887863154274  0.6125459854208454 1.0000   
         H         H         1.0       0.7741170760875711  0.6013355659514832  0.5604448264400804 1.0000   
         H         H         1.0       0.7885236814125755  0.6018860945529138  0.487110583381434  1.0000   
         H         H         1.0       0.8129683081359232  0.5619331745781213  0.5275387304246633 1.0000   
         H         H         1.0       0.7981788522247584  0.558991448203609   0.5985316950491321 1.0000   
         C         C         1.0       0.9760220223240704  0.7858547360160845  0.4960740416634554 1.0000   
         C         C         1.0       0.9723244887409656  0.7963551433469087  0.4629642220532336 1.0000   
         C         C         1.0       0.9534605480123969  0.7865769990502546  0.44037654860354625          1.0000   
         C         C         1.0       0.9372892547491212  0.7642419544588875  0.44660999595287715          1.0000   
         C         C         1.0       0.9414409466159754  0.7540927417601392  0.480061739901595  1.0000   
         C         C         1.0       0.9601830262085144  0.7649859088783597  0.5040671245455141 1.0000   
         H         H         1.0       0.9865980685481651  0.8117188928632927  0.45522753126027016          1.0000   
         H         H         1.0       0.9529213379013104  0.7961130962160747  0.41419589591820094          1.0000   
         H         H         1.0       0.9277387406927329  0.7374961481157816  0.4889638456666196 1.0000   
         H         H         1.0       0.9607099057466802  0.7558889833411327  0.533189447198281  1.0000   
         C         C         1.0       0.9254020728409244  0.7202673664979119  0.39541637985740563          1.0000   
         C         C         1.0       0.9105961733397439  0.7280381171351655  0.4015336123156968 1.0000   
         C         C         1.0       0.8885144053404677  0.7130540052084344  0.3912371519702538 1.0000   
         C         C         1.0       0.8823324182014283  0.6917075151810974  0.37335687372629767          1.0000   
         C         C         1.0       0.898272612824761   0.6861262094148753  0.36842855047991946          1.0000   
         C         C         1.0       0.9193126218019224  0.6999982119217711  0.38014416402411555          1.0000   
         C         C         1.0       0.9162699878075877  0.7525926230101022  0.41649447682137225          1.0000   
         C         C         1.0       0.9197415279474863  0.7633111952751922  0.3725501413614471 1.0000   
         C         C         1.0       0.9021499441938577  0.7621432808174625  0.35112383804272557          1.0000   
         C         C         1.0       0.9039188903347729  0.7666645498535263  0.3083818754157731 1.0000   
         C         C         1.0       0.9223667586111609  0.7712439530873624  0.28617027874571616          1.0000   
         C         C         1.0       0.9406194918242025  0.7748840788451112  0.30665796492137365          1.0000   
         C         C         1.0       0.9385592171040265  0.7697523754253994  0.34889972795408697          1.0000   
         C         C         1.0       0.8883460081530259  0.7386779230226531  0.47783955601535777          1.0000   
         C         C         1.0       0.877947792959676   0.7410713413861889  0.511473837456851  1.0000   
         C         C         1.0       0.8764418181736825  0.7591441311460989  0.5157186918224188 1.0000   
         C         C         1.0       0.889297698306019   0.7765071734228468  0.4886400213523709 1.0000   
         C         C         1.0       0.898400926195846   0.7734412405898549  0.45230201187934976          1.0000   
         C         C         1.0       0.8995844308870069  0.7545407180988479  0.4489871075629663 1.0000   
         C         C         1.0       0.8620353219846766  0.7629791644009705  0.5546816643298655 1.0000   
         C         C         1.0       0.8083938783238699  0.7055766471687718  0.6186615200085952 1.0000   
         C         C         1.0       0.8164843243378872  0.7267670148686657  0.6344827347583814 1.0000   
         C         C         1.0       0.8321002782575546  0.7445131918224202  0.6134593940898    1.0000   
         C         C         1.0       0.840987727138991   0.7427875030272058  0.5757839799533406 1.0000   
         C         C         1.0       0.8312169715156364  0.7224295377347248  0.5570725212410707 1.0000   
         C         C         1.0       0.8162533642141472  0.7041948456533286  0.578164676495106  1.0000   
         C         C         1.0       0.8526806112633961  0.7764186973674895  0.5335112645441248 1.0000   
         C         C         1.0       0.8629027374820719  0.7994257224962592  0.5353671963487381 1.0000   
         C         C         1.0       0.8526208367394408  0.8098756116405249  0.5211577461576614 1.0000   
         C         C         1.0       0.8320681697261748  0.7980417668662705  0.5021384884846625 1.0000   
         C         C         1.0       0.822628889905359   0.7758645916645743  0.49661263656515187          1.0000   
         C         C         1.0       0.8331437750640395  0.7653560773078425  0.5105420420757484 1.0000   
         C         C         1.0       0.8801177806292273  0.789547278948493   0.6188763949557374 1.0000   
         C         C         1.0       0.890958479902352   0.7947409110113407  0.6562555000218431 1.0000   
         C         C         1.0       0.8994768982363276  0.7822995843497993  0.671842780825718  1.0000   
         C         C         1.0       0.8987359949001158  0.7664686386787106  0.6463431844935079 1.0000   
         C         C         1.0       0.890568174238096   0.7629989214375332  0.6074217263635042 1.0000   
         C         C         1.0       0.8779240434231929  0.771900615517518   0.5953354542961637 1.0000   
         H         H         1.0       0.9410859779666882  0.730150648275469   0.4073284038006805 1.0000   
         H         H         1.0       0.876549553089487   0.7182984407254362  0.38988835773906766          1.0000   
         H         H         1.0       0.8657161544860158  0.6813433455205807  0.35960231478906085          1.0000   
         H         H         1.0       0.930235101314141   0.6939922054316171  0.38300036310741864          1.0000   
         H         H         1.0       0.8866509747029897  0.7588779630315784  0.36708618329564163          1.0000   
         H         H         1.0       0.8904423533277414  0.7666403371509125  0.29192018953911425          1.0000   
         H         H         1.0       0.9545029564639982  0.7779348962542846  0.29114033487304813          1.0000   
         H         H         1.0       0.9515853658782087  0.7706843965729887  0.3657277712212331 1.0000   
         H         H         1.0       0.8906118225792465  0.7246380505324261  0.47900524377489206          1.0000   
         H         H         1.0       0.8688015317116716  0.72629091957666    0.5314971390482925 1.0000   
         H         H         1.0       0.8898812872084276  0.7917667011261654  0.49421605513465106          1.0000   
         H         H         1.0       0.9068509308894982  0.7856821069562008  0.43173730994029763          1.0000   
         H         H         1.0       0.8094631790445818  0.7276775725242611  0.663604981577379  1.0000   
         H         H         1.0       0.8362539550395957  0.7598518527149024  0.6265799358642308 1.0000   
         H         H         1.0       0.8354066603929415  0.7199314999239361  0.5246431238573342 1.0000   
         H         H         1.0       0.8103608522373557  0.6882359074427438  0.56229310114233   1.0000   
         H         H         1.0       0.8786041746687671  0.8095025054472652  0.547750523018773  1.0000   
         H         H         1.0       0.8578865383710206  0.8271494110971686  0.5282814291883763 1.0000   
         H         H         1.0       0.8072538666579666  0.7659752118335386  0.4827980550955853 1.0000   
         H         H         1.0       0.8254216333281549  0.7476342284178684  0.5030282825015397 1.0000   
         H         H         1.0       0.8688637452930742  0.7958713065731194  0.6132859501999566 1.0000   
         H         H         1.0       0.8918003220485431  0.8083282755064938  0.6741462889695833 1.0000   
         H         H         1.0       0.9077053203888314  0.7578884214325551  0.6522598248191477 1.0000   
         H         H         1.0       0.8905908154870655  0.7497819456764858  0.5889401999269043 1.0000   
         C         C         1.0       0.9906433188128443  0.8119474158373163  0.9705745343932625 1.0000   
         C         C         1.0       0.9781843864394948  0.820559942279487   0.9550895226457683 1.0000   
         C         C         1.0       0.9585204228631874  0.8068448605958854  0.9352304333670026 1.0000   
         C         C         1.0       0.9508532448910426  0.7849545659582682  0.9314911468267546 1.0000   
         C         C         1.0       0.9630296577366365  0.776181046305137   0.9487182311110561 1.0000   
         C         C         1.0       0.9830953598025491  0.7898237261584571  0.968753844189841  1.0000   
         H         H         1.0       0.9843282694709209  0.8383106199597374  0.9568608914557469 1.0000   
         H         H         1.0       0.9493454308233462  0.8129756654629939  0.9251491456167515 1.0000   
         H         H         1.0       0.95529727213795    0.7589460936394702  0.9511581955308531 1.0000   
         H         H         1.0       0.9941838321568557  0.7840188269354156  0.9799956610688063 1.0000   
         C         C         1.0       0.9344750033251455  0.7432621573986367  0.8749472457885459 1.0000   
         C         C         1.0       0.9212333515106623  0.7458220202928428  0.9049726570353086 1.0000   
         C         C         1.0       0.9045570060768627  0.7276963530265247  0.9231525274379322 1.0000   
         C         C         1.0       0.898530187582162   0.7067593971286472  0.9082380609864115 1.0000   
         C         C         1.0       0.9112332116770503  0.7046938761803488  0.8770043032287127 1.0000   
         C         C         1.0       0.9294472456793884  0.7237262032232473  0.859551335900309  1.0000   
         C         C         1.0       0.925844896058571   0.7700285845133135  0.9175395030026197 1.0000   
         C         C         1.0       0.9192924223742973  0.774942741151979   0.8729150747296575 1.0000   
         C         C         1.0       0.8971760157518848  0.7608185510182878  0.8597231758995898 1.0000   
         C         C         1.0       0.8898105122463119  0.7636172688603889  0.820982707154673  1.0000   
         C         C         1.0       0.9044025737121266  0.7799494882181781  0.7955259113712027 1.0000   
         C         C         1.0       0.9255482766970913  0.7941359121522352  0.8079814408936199 1.0000   
         C         C         1.0       0.9325996286122225  0.7916596220970542  0.847139247157981  1.0000   
         C         C         1.0       0.9118793566944592  0.7629530142319144  0.9957304971861515 1.0000   
         C         C         1.0       0.9003257857461525  0.764225912961803   0.029061094044879245         1.0000   
         C         C         1.0       0.8881939857178446  0.7744338596298204  0.026604933633177674         1.0000   
         C         C         1.0       0.8878776774581978  0.7827936732339379  0.9876224142760438 1.0000   
         C         C         1.0       0.8998466668612229  0.7813292015167562  0.953327312286568  1.0000   
         C         C         1.0       0.9114314756262734  0.7703120623234356  0.9554109905621697 1.0000   
         C         C         1.0       0.8735012876253229  0.7735463013779699  0.06655630707368955          1.0000   
         C         C         1.0       0.8281589176270447  0.7024323889066924  0.059866409512333935         1.0000   
         C         C         1.0       0.8458984523696083  0.7115371765762308  0.08592246950353241          1.0000   
         C         C         1.0       0.8590274916815998  0.7341493832682995  0.09088274978114039          1.0000   
         C         C         1.0       0.8556137720893678  0.7486891525923214  0.06621428771470153          1.0000   
         C         C         1.0       0.8397352587959507  0.7392865184058326  0.035966617581691646         1.0000   
         C         C         1.0       0.8260180110881207  0.7166508077753561  0.03131727735374695          1.0000   
         C         C         1.0       0.8630988459047616  0.789064758600794   0.06191617066515654          1.0000   
         C         C         1.0       0.877799865013779   0.8113414551265411  0.05110089286906562          1.0000   
         C         C         1.0       0.869428820311432   0.8236376077151555  0.03506921070761636          1.0000   
         C         C         1.0       0.8483468758623334  0.8173317472738364  0.0388797785231108 1.0000   
         C         C         1.0       0.8343528984112256  0.7978723069019802  0.05731938892054765          1.0000   
         C         C         1.0       0.8417626791059323  0.7843558720745724  0.06927857232382029          1.0000   
         C         C         1.0       0.8771767022746442  0.7760144419257262  0.14799624771834216          1.0000   
         C         C         1.0       0.8886473651709966  0.780752794477964   0.18553173448936316          1.0000   
         C         C         1.0       0.9106642774794661  0.7944942198349337  0.18568207937074224          1.0000   
         C         C         1.0       0.9207351466135375  0.8033635849281605  0.1486707539483081 1.0000   
         C         C         1.0       0.9094637179648272  0.7982574393893326  0.11071845622790073          1.0000   
         C         C         1.0       0.8879416712825413  0.7830723794168426  0.11059969004832697          1.0000   
         H         H         1.0       0.9471231243517336  0.7569767448555992  0.8607376487627467 1.0000   
         H         H         1.0       0.8910222527860499  0.7260009244972094  0.9443597050427488 1.0000   
         H         H         1.0       0.8843775353666681  0.6923641872713552  0.9249745793876417 1.0000   
         H         H         1.0       0.9405580906446819  0.7218101237527014  0.8362695781517623 1.0000   
         H         H         1.0       0.8860226764428203  0.7457381745547186  0.8774486551821636 1.0000   
         H         H         1.0       0.8722883816785454  0.7544654172640373  0.8134466339544708 1.0000   
         H         H         1.0       0.9365625170190666  0.8083631397726547  0.7898385151058349 1.0000   
         H         H         1.0       0.9502033854652692  0.8042432024921597  0.8555790478450412 1.0000   
         H         H         1.0       0.9212160709315974  0.7558878416546108  0.003266412724390211         1.0000   
         H         H         1.0       0.9006079859137188  0.7570233447180079  0.0582082121782235 1.0000   
         H         H         1.0       0.8781029301458817  0.7900488512400717  0.9830778715833222 1.0000   
         H         H         1.0       0.9001630755926034  0.7896964149947028  0.9242866915456163 1.0000   
         H         H         1.0       0.8495800085784606  0.700294428373745   0.10317821608221528          1.0000   
         H         H         1.0       0.8742735654096309  0.7399155304849943  0.10867474700749621          1.0000   
         H         H         1.0       0.8388317082799728  0.7491860862822308  0.013584090339628263         1.0000   
         H         H         1.0       0.8148000755261566  0.7098540178129359  0.004304273148793003         1.0000   
         H         H         1.0       0.8953523107602086  0.8178739034381048  0.04774628173886463          1.0000   
         H         H         1.0       0.8811885129408134  0.8394064809941388  0.023276020460405  1.0000   
         H         H         1.0       0.8189691947837426  0.7939988193519172  0.060479713920223575         1.0000   
         H         H         1.0       0.8292491231935581  0.7681264317192773  0.08209498515537268          1.0000   
         H         H         1.0       0.8603708855595833  0.7656369191549187  0.14930315456064447          1.0000   
         H         H         1.0       0.8793128683493512  0.773014472745529   0.21315545649475642          1.0000   
         H         H         1.0       0.9382396909579672  0.8131646734668508  0.1467193257140259 1.0000   
         H         H         1.0       0.9177341089054776  0.8051746235785124  0.08300087576454993          1.0000   
         C         C         1.0       0.8642559202352755  0.4984273365521067  0.13100904820711706          1.0000   
         C         C         1.0       0.8571433317495142  0.48302255276535117           0.10037985835621324          1.0000   
         C         C         1.0       0.869804664994632   0.4758335419480584  0.08071398550088912          1.0000   
         C         C         1.0       0.8924777238949031  0.4880305010097751  0.0883703970286256 1.0000   
         C         C         1.0       0.9004613771491754  0.5056938773770745  0.11766074559935556          1.0000   
         C         C         1.0       0.8863277264249768  0.5103280549851602  0.13936763971522126          1.0000   
         H         H         1.0       0.8399817700435115  0.47197149182651577           0.09391215514322393          1.0000   
         H         H         1.0       0.8625279978706996  0.46103010128275973           0.06358276240519715          1.0000   
         H         H         1.0       0.9163420460490873  0.5134949830140539  0.12741120238972392          1.0000   
         H         H         1.0       0.8933607242922982  0.52582388761998    0.15693212899884626          1.0000   
         C         C         1.0       0.9346648145163712  0.5181061225304728  0.03824218458705775          1.0000   
         C         C         1.0       0.9316023954295866  0.498995224164074   0.057591707683473346         1.0000   
         C         C         1.0       0.9492692991248829  0.4958589380813743  0.05624417430370772          1.0000   
         C         C         1.0       0.9701813089490492  0.5129662401658618  0.046128179453217406         1.0000   
         C         C         1.0       0.9728806575939363  0.5325661764139096  0.03400104842312218          1.0000   
         C         C         1.0       0.9549231516866324  0.5356258646213473  0.03055422043475038          1.0000   
         C         C         1.0       0.908383703180939   0.4794912288118127  0.06919547001418053          1.0000   
         C         C         1.0       0.9010244022324103  0.46704714044937223           0.026151773073649354         1.0000   
         C         C         1.0       0.9051326874217334  0.4506922049539688  0.019424758179030333         1.0000   
         C         C         1.0       0.8991472665092629  0.43945692270968906           0.9831011394980921 1.0000   
         C         C         1.0       0.8890119139278916  0.44417846231440744           0.9524609016017646 1.0000   
         C         C         1.0       0.8860100412187932  0.46198632458910455           0.9569076953701576 1.0000   
         C         C         1.0       0.8921318745504709  0.4734145469456258  0.9938188365525116 1.0000   
         C         C         1.0       0.9242304565920819  0.4726810166107101  0.13746165086456452          1.0000   
         C         C         1.0       0.9227515454516837  0.46029158701127104           0.1726945903956179 1.0000   
         C         C         1.0       0.9054076822047411  0.43928372468763033           0.17619162454046394          1.0000   
         C         C         1.0       0.8897344480099738  0.4314447667358041  0.14518481849096926          1.0000   
         C         C         1.0       0.8913253354955346  0.44374622679300524           0.11197865632738047          1.0000   
         C         C         1.0       0.9080861545950831  0.46475993104555746           0.10754873453844532          1.0000   
         C         C         1.0       0.9040093389629822  0.4250018554015312  0.21717100630486813          1.0000   
         C         C         1.0       0.9696423872566966  0.4379451017631627  0.2562627504643994 1.0000   
         C         C         1.0       0.9534152518556277  0.43023521707633683           0.28462462336650673          1.0000   
         C         C         1.0       0.9331248125481588  0.4265704605015695  0.2742371818114142 1.0000   
         C         C         1.0       0.9287922972106786  0.4303081290347161  0.23240043344909114          1.0000   
         C         C         1.0       0.9458595145908713  0.43683659969697897           0.20384589837589617          1.0000   
         C         C         1.0       0.9655986688748635  0.44028433485995855           0.21566301372916735          1.0000   
         C         C         1.0       0.8908410918336984  0.39945321966443187           0.20398219164962197          1.0000   
         C         C         1.0       0.8682298579084643  0.38732073327329664           0.21060602315033825          1.0000   
         C         C         1.0       0.8561298097586343  0.36536203967746184           0.19859068219939202          1.0000   
         C         C         1.0       0.8659930280639621  0.35556216019663767           0.17758175061989895          1.0000   
         C         C         1.0       0.888079612914336   0.3669972803904023  0.1707703413115765 1.0000   
         C         C         1.0       0.8998782230753435  0.38774448387119725           0.18318415000513796          1.0000   
         C         C         1.0       0.8842367234673872  0.41717763332309055           0.2925183626036907 1.0000   
         C         C         1.0       0.8798135967915464  0.42460543661257444           0.3290856627417868 1.0000   
         C         C         1.0       0.8850080458777786  0.44549251636736914           0.3321769520265652 1.0000   
         C         C         1.0       0.892326144977257   0.45930120024693954           0.29788839891994745          1.0000   
         C         C         1.0       0.8963237345478356  0.45126795995658014           0.26054934504326505          1.0000   
         C         C         1.0       0.893584871620802   0.43084170005959826           0.2580421032044805 1.0000   
         H         H         1.0       0.9218320135236274  0.5216114431873625  0.0351302494736971 1.0000   
         H         H         1.0       0.9485964365185847  0.48075841598197605           0.06489371216244927          1.0000   
         H         H         1.0       0.9831148484562267  0.5086071230111392  0.04728698139868873          1.0000   
         H         H         1.0       0.9575460058541067  0.5516003542627658  0.0226008761020704 1.0000   
         H         H         1.0       0.912645050000622   0.44477757270662693           0.0417960282142869 1.0000   
         H         H         1.0       0.9030338525019103  0.42716761496093786           0.979603829235355  1.0000   
         H         H         1.0       0.8796466686853375  0.46895923224931335           0.9324207155584141 1.0000   
         H         H         1.0       0.8903969151665907  0.48797901760961715           0.9967782186536374 1.0000   
         H         H         1.0       0.9384017607656842  0.489291497761731   0.13819724992559387          1.0000   
         H         H         1.0       0.9348928062794747  0.4656488825865637  0.19801262314454915          1.0000   
         H         H         1.0       0.8749948009181031  0.4165860293185127  0.149736639010172  1.0000   
         H         H         1.0       0.8775963257334201  0.4368296270736175  0.0882409142100266 1.0000   
         H         H         1.0       0.9598630366465274  0.4319466449141183  0.3168346363504221 1.0000   
         H         H         1.0       0.9211397806478914  0.421263570407599   0.2980962809448221 1.0000   
         H         H         1.0       0.9419019662715472  0.43765141463403523           0.17064735795157118          1.0000   
         H         H         1.0       0.9775576547390411  0.44468980500723027           0.19043487797814937          1.0000   
         H         H         1.0       0.857563636427181   0.3934465707170556  0.22134147572031823          1.0000   
         H         H         1.0       0.8390416834952142  0.3557438044285626  0.20136330446531794          1.0000   
         H         H         1.0       0.8969050218086531  0.3602821349529526  0.15749670120844805          1.0000   
         H         H         1.0       0.9169947809834315  0.3977044955908786  0.171344306350497  1.0000   
         H         H         1.0       0.8815323675385819  0.4010932312909775  0.29326202034726445          1.0000   
         H         H         1.0       0.8758660932215948  0.41495973573658895           0.35780308445075043          1.0000   
         H         H         1.0       0.8962555906682289  0.4761178337140581  0.30031956059818227          1.0000   
         H         H         1.0       0.9032639626718614  0.4621144370366952  0.2350854302880902 1.0000   
         C         C         1.0       0.8879148418425585  0.5152181273599987  0.6466779820736275 1.0000   
         C         C         1.0       0.8751217982918114  0.49618273523900547           0.6267735451639026 1.0000   
         C         C         1.0       0.883982374680773   0.4861840065646067  0.6027014245303102 1.0000   
         C         C         1.0       0.9069067811637913  0.49461996325443264           0.6030095807817244 1.0000   
         C         C         1.0       0.9186179030722914  0.5138413497758326  0.6247139693051611 1.0000   
         C         C         1.0       0.9098188688511615  0.5236492282222373  0.6481936936761027 1.0000   
         H         H         1.0       0.8581509530971902  0.4890920172399662  0.6275110513581101 1.0000   
         H         H         1.0       0.873377294029183   0.4708689517294804  0.5901601769308771 1.0000   
         H         H         1.0       0.9357171757402312  0.5205751064821629  0.6234530120268607 1.0000   
         H         H         1.0       0.9206403169455994  0.5386406289312278  0.6664510109313335 1.0000   
         C         C         1.0       0.9507569850059162  0.517061426715119   0.5502014672466865 1.0000   
         C         C         1.0       0.9425567393783421  0.49504158595402403           0.5668697824777937 1.0000   
         C         C         1.0       0.9563478227456657  0.4864640759799369  0.566625807042525  1.0000   
         C         C         1.0       0.9776377228192777  0.49947050362763024           0.5531265400256618 1.0000   
         C         C         1.0       0.9850611062493067  0.5203753179797661  0.5390703600135657 1.0000   
         C         C         1.0       0.9717544644775107  0.5293241594652203  0.5359215254336166 1.0000   
         C         C         1.0       0.9169430535609618  0.4812092302453988  0.5803225364039672 1.0000   
         C         C         1.0       0.9056228332969708  0.46988165771035734           0.5362454170363344 1.0000   
         C         C         1.0       0.9096929293319967  0.45428069697733053           0.5194006776849669 1.0000   
         C         C         1.0       0.9067807919765823  0.44860929020996    0.47770089069363364          1.0000   
         C         C         1.0       0.9007781757162421  0.4593832040162012  0.4508426983631951 1.0000   
         C         C         1.0       0.9003367989119527  0.47738860928139115           0.4658309889942179 1.0000   
         C         C         1.0       0.9015538403037047  0.4824564670005536  0.5084405146583653 1.0000   
         C         C         1.0       0.9260645935662332  0.47143960065137686           0.6497202898647406 1.0000   
         C         C         1.0       0.9236104452902083  0.4579104127457902  0.6825397811350361 1.0000   
         C         C         1.0       0.9061641632030799  0.4362350379319093  0.6838481734050806 1.0000   
         C         C         1.0       0.8919122509116008  0.4293601475370029  0.6501392453132269 1.0000   
         C         C         1.0       0.894644375617978   0.4425595205342212  0.6163496072313661 1.0000   
         C         C         1.0       0.9113974955897133  0.4630713179932849  0.6152428481658229 1.0000   
         C         C         1.0       0.9035306265512059  0.41812668301961775           0.7205443065494963 1.0000   
         C         C         1.0       0.9679175781270992  0.43283972417224337           0.767695522233995  1.0000   
         C         C         1.0       0.9514557941449847  0.4277858948729696  0.7956315168820337 1.0000   
         C         C         1.0       0.9315678310452514  0.4239368761998939  0.7811040051413665 1.0000   
         C         C         1.0       0.9274706108711854  0.42438476105322903           0.738078007250093  1.0000   
         C         C         1.0       0.944786829629602   0.43065811534460685           0.7098559112929926 1.0000   
         C         C         1.0       0.9648160540103621  0.4347266359653066  0.7250491897323103 1.0000   
         C         C         1.0       0.8916483914778166  0.3937223705630743  0.7023136116921156 1.0000   
         C         C         1.0       0.8689309135685913  0.38207099839363606           0.6953034485521509 1.0000   
         C         C         1.0       0.8576024875278777  0.3607053254213109  0.6782644094280549 1.0000   
         C         C         1.0       0.8697923232900864  0.3516643879218297  0.6665628844057335 1.0000   
         C         C         1.0       0.8919301381356204  0.3632008350366033  0.6691337323694688 1.0000   
         C         C         1.0       0.9027053839876117  0.3837698366490072  0.6874779289049087 1.0000   
         C         C         1.0       0.8755454291802328  0.40340216550884916           0.7849867217291984 1.0000   
         C         C         1.0       0.8684352935798767  0.4072452148761023  0.8213562330236305 1.0000   
         C         C         1.0       0.873772234277907   0.4279414841783696  0.833581329948368  1.0000   
         C         C         1.0       0.8889000398000174  0.446065377903534   0.810738940399096  1.0000   
         C         C         1.0       0.8961873269232756  0.44194153587765034           0.774860645480586  1.0000   
         C         C         1.0       0.8899451781905987  0.4207727836473938  0.7608448926855385 1.0000   
         H         H         1.0       0.9386956427277008  0.5216119580459659  0.5446918394550629 1.0000   
         H         H         1.0       0.9507037534611805  0.4700800286169216  0.5755118533223094 1.0000   
         H         H         1.0       0.9877842678191266  0.49304869053427297           0.5575905553393269 1.0000   
         H         H         1.0       0.977086042341304   0.5451027516692569  0.5241225012017817 1.0000   
         H         H         1.0       0.9160047144828292  0.4466030939922003  0.5384431300831726 1.0000   
         H         H         1.0       0.9109543015201838  0.4369702659952205  0.4688976482482082 1.0000   
         H         H         1.0       0.8960632423387717  0.4854767086146713  0.44078552375357427          1.0000   
         H         H         1.0       0.9020743298548941  0.49764371868537605           0.5187044915048954 1.0000   
         H         H         1.0       0.9389706585236857  0.4881419863818541  0.652394415189785  1.0000   
         H         H         1.0       0.9362443206638726  0.4629938733548283  0.7075747172882847 1.0000   
         H         H         1.0       0.8774566115245934  0.41353124870511493           0.6453663406314982 1.0000   
         H         H         1.0       0.8818479342308243  0.4359523105930811  0.5931532479023884 1.0000   
         H         H         1.0       0.9524661909710593  0.4268537236933304  0.8309278927468386 1.0000   
         H         H         1.0       0.9201935871368677  0.42011393482318243           0.8062061367487742 1.0000   
         H         H         1.0       0.9427500223261811  0.43265846365176225           0.6783400279000541 1.0000   
         H         H         1.0       0.9772608563805785  0.43991521048391247           0.7012107810054335 1.0000   
         H         H         1.0       0.8583030327378155  0.38897030306527025           0.6996513587631666 1.0000   
         H         H         1.0       0.8396271771517074  0.35285285864298177           0.6748380288857027 1.0000   
         H         H         1.0       0.9004045935252007  0.35577482945946476           0.6579017130471494 1.0000   
         H         H         1.0       0.919924185693781   0.3914138295434722  0.6900708442571643 1.0000   
         H         H         1.0       0.8699652856734255  0.3856573468879009  0.7771869954573488 1.0000   
         H         H         1.0       0.8565997746854233  0.3917231505891583  0.8365309296936954 1.0000   
         H         H         1.0       0.8942846041836037  0.46261330702417525           0.8192618536598807 1.0000   
         H         H         1.0       0.9060069789377745  0.4559311703551184  0.7546712407355817 1.0000   
         C         C         1.0       0.1407781544191908  0.6432472702605272  0.37690895942316327          1.0000   
         C         C         1.0       0.15256525021089648           0.6337839335192369 0.3904426572276742 1.0000   
         C         C         1.0       0.1408254748272165  0.6138926967173735  0.41044391633850885          1.0000   
         C         C         1.0       0.1181883886042742  0.6036717204357167  0.41676909762239717          1.0000   
         C         C         1.0       0.10731318295276006           0.614417523696015  0.4045916666823402 1.0000   
         C         C         1.0       0.11858084846175493           0.6338760831690355 0.38407164105484787          1.0000   
         H         H         1.0       0.16946608419014114           0.6408920154139385 0.386468324781682  1.0000   
         H         H         1.0       0.15040994756509402           0.6065243916696738 0.41853852888370935          1.0000   
         H         H         1.0       0.08985980419938605           0.6082801381615373 0.4045883080498286 1.0000   
         H         H         1.0       0.1091862128458009  0.6415302235975727  0.3754402753355817 1.0000   
         C         C         1.0       0.0739052051127535  0.5822889519795871  0.4723318580022452 1.0000   
         C         C         1.0       0.07954844850965818           0.5707083619168062 0.4447625104350047 1.0000   
         C         C         1.0       0.06313038175439603           0.5512560424439191 0.4297925268801655 1.0000   
         C         C         1.0       0.041480574919047296          0.5439118267800024 0.43891505600595554          1.0000   
         C         C         1.0       0.03598707003895241           0.555328808224656  0.46779343384115757          1.0000   
         C         C         1.0       0.05266980242380366           0.5747892688115331 0.4839354872401264 1.0000   
         C         C         1.0       0.10436926257065879           0.5796547041560313 0.4367433167466995 1.0000   
         C         C         1.0       0.11304711547997981           0.577187105025544  0.48208942363190893          1.0000   
         C         C         1.0       0.10396303542059476           0.5572363307365876 0.5008992973627319 1.0000   
         C         C         1.0       0.11047179212977314           0.5548994115181619 0.5392872882773794 1.0000   
         C         C         1.0       0.12469222597848108           0.5721551731474067 0.5630493516346574 1.0000   
         C         C         1.0       0.13498499660103483           0.5927242907464753 0.5447498565539252 1.0000   
         C         C         1.0       0.1297858972263878  0.5953689709861396  0.50493762936285   1.0000   
         C         C         1.0       0.1009345662041877  0.5677769569374985  0.35870128928834244          1.0000   
         C         C         1.0       0.09951062302588073           0.553663709749225  0.3270363002876913 1.0000   
         C         C         1.0       0.10554503202850975           0.53807184327618   0.3337852310742304 1.0000   
         C         C         1.0       0.11323427106380081           0.5370223858073064 0.3754623916055791 1.0000   
         C         C         1.0       0.11453742241304021           0.551129381298262  0.4055275796662221 1.0000   
         C         C         1.0       0.10636369585312305           0.5646490389556522 0.3999513056454982 1.0000   
         C         C         1.0       0.10028097934587445           0.5199912900457409 0.2979090975691511 1.0000   
         C         C         1.0       0.028093711941447646          0.479075742781425  0.29702304805222923          1.0000   
         C         C         1.0       0.03892522713796017           0.49601765022664196          0.2696108059169591 1.0000   
         C         C         1.0       0.061459820905836196          0.5101218383958852 0.2703635947941439 1.0000   
         C         C         1.0       0.07374875661156406           0.506448532198642  0.30027076480415493          1.0000   
         C         C         1.0       0.06274178331806972           0.4884833445753927 0.3278903828906549 1.0000   
         C         C         1.0       0.04008994365833564           0.4756695610062747 0.3260902950786207 1.0000   
         C         C         1.0       0.11160111570102339           0.5056156276772423 0.3004365739534463 1.0000   
         C         C         1.0       0.13414407533778763           0.5155303560238322 0.31303244044888895          1.0000   
         C         C         1.0       0.14369462611932826           0.50363666057024   0.32102947175999696          1.0000   
         C         C         1.0       0.13186782590015864           0.4814311414747937 0.31457894500518   1.0000   
         C         C         1.0       0.1110779897621071  0.4709139071297592  0.29984045338570603          1.0000   
         C         C         1.0       0.10176418150880927           0.4836013778955725 0.2911903458590962 1.0000   
         C         C         1.0       0.10234694285025381           0.5168348136362199 0.21691236180279275          1.0000   
         C         C         1.0       0.1072625288558028  0.5251615397246686  0.17614990402884814          1.0000   
         C         C         1.0       0.12132815043541974           0.5473478326393392 0.17091617143114965          1.0000   
         C         C         1.0       0.13131009966898613           0.5608578016636029 0.20520185138682773          1.0000   
         C         C         1.0       0.12698204361136517           0.5517267575430544 0.24567043847314954          1.0000   
         C         C         1.0       0.11109233913837648           0.5298440342913662 0.25206876119347704          1.0000   
         H         H         1.0       0.08805840759103811           0.5978530962717157 0.484998003654707  1.0000   
         H         H         1.0       0.06668068136655618           0.5404062990974787 0.41403094385469186          1.0000   
         H         H         1.0       0.02882033542084605           0.5286593264305459 0.4264349994364979 1.0000   
         H         H         1.0       0.04812550039164828           0.5836372612717072 0.5082298014105259 1.0000   
         H         H         1.0       0.09075699565581982           0.5417907693917472 0.48768265708076863          1.0000   
         H         H         1.0       0.10315862143706941           0.5388596192131693 0.5494339045499854 1.0000   
         H         H         1.0       0.1460324607116294  0.607748141150507   0.562262694390137  1.0000   
         H         H         1.0       0.1371154523804834  0.6119570695763183  0.4940289497297018 1.0000   
         H         H         1.0       0.09558848108394137           0.5785191404619535 0.3527022005331936 1.0000   
         H         H         1.0       0.09357174927484653           0.5556864524645064 0.2964192428089688 1.0000   
         H         H         1.0       0.11852492948960554           0.5258968068614963 0.38333704615813086          1.0000   
         H         H         1.0       0.12200607597213972           0.5506070320932459 0.4339740401779905 1.0000   
         H         H         1.0       0.03038613340087342           0.4987565535999298 0.2461191961181856 1.0000   
         H         H         1.0       0.0685962811515031  0.5227866968341072  0.24546333232546294          1.0000   
         H         H         1.0       0.07154583275648314           0.48480749903654485          0.34931750859433064          1.0000   
         H         H         1.0       0.030699632611159836          0.4622235013219824 0.3451684585503856 1.0000   
         H         H         1.0       0.14360348040263596           0.5326663453833882 0.32304543650674666          1.0000   
         H         H         1.0       0.16085549215776587           0.5131529510385973 0.32934222706427774          1.0000   
         H         H         1.0       0.10146021779220181           0.45343654203011   0.29257117192715737          1.0000   
         H         H         1.0       0.08488720598088031           0.4751365414368306 0.27965591698019066          1.0000   
         H         H         1.0       0.0891871102306537  0.5008949960492806  0.21842938100068562          1.0000   
         H         H         1.0       0.09766309881011219           0.5134042303493561 0.15151810782466976          1.0000   
         H         H         1.0       0.14296544255737317           0.5779085965445487 0.20073932453432172          1.0000   
         H         H         1.0       0.13496934717824627           0.5624381312372013 0.27325116893759765          1.0000   
         C         C         1.0       0.13417062881868574           0.6415454133447249 0.8975871378004551 1.0000   
         C         C         1.0       0.14234063039533826           0.6292222797779484 0.9165819645486671 1.0000   
         C         C         1.0       0.12858717393685584           0.6078014543006528 0.9293143371749925 1.0000   
         C         C         1.0       0.10576450585737673           0.5981176729472909 0.9254561134323633 1.0000   
         C         C         1.0       0.09781415880469843           0.6102195099788107 0.9055706015436203 1.0000   
         C         C         1.0       0.11179991921246883           0.6315460554185653 0.894305654200919  1.0000   
         H         H         1.0       0.1599710928147239  0.6345366860208824  0.9221279711190444 1.0000   
         H         H         1.0       0.13700182323110788           0.6000633518923401 0.9441981739895164 1.0000   
         H         H         1.0       0.08061577083006903           0.6049190907513333 0.8980551628590264 1.0000   
         H         H         1.0       0.10458856735789303           0.6407429565358027 0.8794814187304256 1.0000   
         C         C         1.0       0.06401839831450974           0.5861164776957833 0.9749898408093659 1.0000   
         C         C         1.0       0.06526094593641356           0.5699392282504107 0.9506853916445815 1.0000   
         C         C         1.0       0.045604618595741324          0.5507975618805898 0.9398231747344482 1.0000   
         C         C         1.0       0.025400520536581688          0.5492522366685265 0.9476323455600613 1.0000   
         C         C         1.0       0.024862562074631025          0.5644506595812298 0.9723823974693009 1.0000   
         C         C         1.0       0.043375515412432925          0.5818667460625685 0.9881681666747518 1.0000   
         C         C         1.0       0.08987978018142713           0.5739263079581349 0.9431051299530371 1.0000   
         C         C         1.0       0.09458575360028554           0.5689760330567702 0.9899198662705234 1.0000   
         C         C         1.0       0.08507205322841552           0.5479371038905932 0.004621033581611478         1.0000   
         C         C         1.0       0.0872126722809107  0.5443196537537193  0.04669080581373112          1.0000   
         C         C         1.0       0.09842435059186921           0.5617112941872842 0.07324007538603279          1.0000   
         C         C         1.0       0.10788285943580535           0.5831508074729633 0.059614393904595685         1.0000   
         C         C         1.0       0.10580799755305373           0.5857008655274725 0.017975301976988156         1.0000   
         C         C         1.0       0.0851868308805705  0.5604338779981926  0.8656355124974395 1.0000   
         C         C         1.0       0.08878987226001227           0.5497387702408295 0.8335289865277452 1.0000   
         C         C         1.0       0.09703369621630778           0.5362698967184258 0.8400383368885471 1.0000   
         C         C         1.0       0.10469892635490527           0.5360940299281302 0.8808123861954015 1.0000   
         C         C         1.0       0.10334980821055953           0.5492110364663731 0.9130493610197137 1.0000   
         C         C         1.0       0.09218045314422055           0.5601084835958666 0.9059680544046251 1.0000   
         C         C         1.0       0.09370174399532914           0.5200188272367879 0.8022247155153107 1.0000   
         C         C         1.0       0.022674660899120617          0.47453902048426294          0.8121288245516036 1.0000   
         C         C         1.0       0.030643118696646904          0.4884913977586353 0.7800206837073808 1.0000   
         C         C         1.0       0.052592539921269124          0.5033808146845969 0.7758151241555894 1.0000   
         C         C         1.0       0.06762355857776312           0.5025346794987348 0.804188819116884  1.0000   
         C         C         1.0       0.05864150913966001           0.4863211439472006 0.8360984612863754 1.0000   
         C         C         1.0       0.03707378736566171           0.47212815513643397          0.836942090949097  1.0000   
         C         C         1.0       0.10929850672317419           0.5098889442861653 0.8060082250540999 1.0000   
         C         C         1.0       0.13163521192898178           0.5230919264605082 0.8181174428631144 1.0000   
         C         C         1.0       0.14330496419603925           0.5132586403354013 0.8301497376126376 1.0000   
         C         C         1.0       0.13446120307078296           0.49107934706022954          0.8299599901613419 1.0000   
         C         C         1.0       0.11296250320855825           0.4778098650215023 0.8137958159239616 1.0000   
         C         C         1.0       0.10091255866247359           0.48723317623914547          0.8018204835249819 1.0000   
         C         C         1.0       0.09701563578210523           0.518627390054074  0.7200630363203353 1.0000   
         C         C         1.0       0.10098043910564608           0.5283879866358113 0.6799622085033091 1.0000   
         C         C         1.0       0.11091991694877533           0.5511905457270819 0.6780069840611663 1.0000   
         C         C         1.0       0.11931436839274835           0.5625570866669949 0.7143213193651996 1.0000   
         C         C         1.0       0.11573069498149789           0.5535233450330518 0.7526478629304547 1.0000   
         C         C         1.0       0.10246495497818249           0.5307941737387927 0.7562236458951253 1.0000   
         H         H         1.0       0.07904096575948567           0.6006297812441659 0.9858631143162816 1.0000   
         H         H         1.0       0.04655415164468451           0.5374574706261764 0.9247732359276716 1.0000   
         H         H         1.0       0.011116221311745746          0.5355922133097911 0.93247247579077   1.0000   
         H         H         1.0       0.040372911047721075          0.5916950185013874 0.01101111928136489          1.0000   
         H         H         1.0       0.07494247246648057           0.5340084610984617 0.9831749400210393 1.0000   
         H         H         1.0       0.0802066747469876  0.5273736909363315  0.05458459844363488          1.0000   
         H         H         1.0       0.11921367982065556           0.5973372179056041 0.07664508106985818          1.0000   
         H         H         1.0       0.11167234446103169           0.6028062958655992 0.011240724752089593         1.0000   
         H         H         1.0       0.0770748607382473  0.5690604559672157  0.8593580998675954 1.0000   
         H         H         1.0       0.08089141582033399           0.5499819457341152 0.8053247201668369 1.0000   
         H         H         1.0       0.11059098198201586           0.5252699624061534 0.8922737710600891 1.0000   
         H         H         1.0       0.10955760388071017           0.5481331789695405 0.9429048253053037 1.0000   
         H         H         1.0       0.01896418131548672           0.4905931824117782 0.7614410658198193 1.0000   
         H         H         1.0       0.059502611065539286          0.5178247065200221 0.7554363831035644 1.0000   
         H         H         1.0       0.06967733674399375           0.4851900483031972 0.8580439486925181 1.0000   
         H         H         1.0       0.031729042577235134          0.45897395095432225          0.8601354566105796 1.0000   
         H         H         1.0       0.14055754396519862           0.5410481666884599 0.818424085148272  1.0000   
         H         H         1.0       0.1591452455913077  0.5248936762194248  0.8463370324594355 1.0000   
         H         H         1.0       0.1054814564643348  0.4597570137138854  0.8148850118708401 1.0000   
         H         H         1.0       0.08403765533334917           0.47543953018580654          0.7924768977168993 1.0000   
         H         H         1.0       0.08668938279805825           0.5015978380050155 0.7228383289865562 1.0000   
         H         H         1.0       0.0920212810477433  0.5183565789821786  0.6514267285937015 1.0000   
         H         H         1.0       0.1267848496935499  0.579887996534442   0.7154854557423939 1.0000   
         H         H         1.0       0.12227233980942644           0.5637614540302369 0.7799933659225964 1.0000   
         C         C         1.0       0.7119583954295089  0.14662038161334903           0.14424152696385353          1.0000   
         C         C         1.0       0.7202831110599489  0.16506683799278668           0.1704853197557738 1.0000   
         C         C         1.0       0.7398223927182761  0.1718089712292077  0.1925294394356599 1.0000   
         C         C         1.0       0.750268408840164   0.1601119426600933  0.19375891564543224          1.0000   
         C         C         1.0       0.7423834811233575  0.14251700905538345           0.16663300647013268          1.0000   
         C         C         1.0       0.7233999207797349  0.13503226199744964           0.14252503840474512          1.0000   
         H         H         1.0       0.7152120757965063  0.17669843374832425           0.17161792798705444          1.0000   
         H         H         1.0       0.7463218437086397  0.1873519042149078  0.20798993378045247          1.0000   
         H         H         1.0       0.7510914170482852  0.13318174550841813           0.1635340912752407 1.0000   
         H         H         1.0       0.7173770483943313  0.12100045008390431           0.12194379360386734          1.0000   
         C         C         1.0       0.7618402938450833  0.13047555173276712           0.2501589902538402 1.0000   
         C         C         1.0       0.7770339794025828  0.15097370975716157           0.23527101615341195          1.0000   
         C         C         1.0       0.7983596876632598  0.1548521570868287  0.23282847863773387          1.0000   
         C         C         1.0       0.8040522220621218  0.14061093771236724           0.2484608775470315 1.0000   
         C         C         1.0       0.7883640195145047  0.12085233833627514           0.2642839275256093 1.0000   
         C         C         1.0       0.767503810224654   0.11641957304162216           0.2673049021427789 1.0000   
         C         C         1.0       0.771660571175542   0.16913345049113163           0.22236492415432343          1.0000   
         C         C         1.0       0.7685976636492413  0.1774730379225507  0.2681653500619743 1.0000   
         C         C         1.0       0.7870803395641957  0.19087982955887317           0.2930851392186621 1.0000   
         C         C         1.0       0.7850224670711946  0.19888496963917213           0.3324271574177193 1.0000   
         C         C         1.0       0.7649767102052789  0.19483671356856955           0.3481612876099037 1.0000   
         C         C         1.0       0.7471278631025329  0.18029158232655418           0.3256219135539753 1.0000   
         C         C         1.0       0.7487541984887701  0.1710063730648768  0.2877118735598653 1.0000   
         C         C         1.0       0.7956406852144419  0.18170225372830429           0.1549310232872556 1.0000   
         C         C         1.0       0.809227913140693   0.1966567924674035  0.1271939593073967 1.0000   
         C         C         1.0       0.8173759303643464  0.21916256640529078           0.13215489330214264          1.0000   
         C         C         1.0       0.8131627655179477  0.22565662276050752           0.17025904779346043          1.0000   
         C         C         1.0       0.7999430826274055  0.21012690357004454           0.19902948198634401          1.0000   
         C         C         1.0       0.7906071934908268  0.18720114740522262           0.19260582884720392          1.0000   
         C         C         1.0       0.8327342941545334  0.23599744629929234           0.0976585761167781 1.0000   
         C         C         1.0       0.8889628672605225  0.2296841713193488  0.1255818213874002 1.0000   
         C         C         1.0       0.8770695993655715  0.22005879217136823           0.09073609949307432          1.0000   
         C         C         1.0       0.8594094231394209  0.2214870543575664  0.07987663232293278          1.0000   
         C         C         1.0       0.8535471945439114  0.23447310109344696           0.10495066319386681          1.0000   
         C         C         1.0       0.8673886516960525  0.2460096397461898  0.1374479376484308 1.0000   
         C         C         1.0       0.8847386173311999  0.24407405769980672           0.14763411380160368          1.0000   
         C         C         1.0       0.8373508913350732  0.2607680854904645  0.09702742961773908          1.0000   
         C         C         1.0       0.8201635213937739  0.26417566622655814           0.10903718605916317          1.0000   
         C         C         1.0       0.824211778930765   0.28561439914567915           0.11529295699328192          1.0000   
         C         C         1.0       0.8437770052127996  0.30318934202610687           0.10626321773657711          1.0000   
         C         C         1.0       0.8597318889714468  0.29981190214674913           0.09214048180873978          1.0000   
         C         C         1.0       0.8569462056899094  0.27916211600302854           0.0869690827668687 1.0000   
         C         C         1.0       0.8333420193211374  0.23360227294478136           0.016073368684755045         1.0000   
         C         C         1.0       0.8243571890683623  0.22744482553159578           0.9757013098752595 1.0000   
         C         C         1.0       0.8018231259599136  0.21438929468633564           0.9728800991924266 1.0000   
         C         C         1.0       0.7885753543079368  0.20688349096421857           0.008370720319945273         1.0000   
         C         C         1.0       0.7975535935973711  0.2138829138198759  0.04691242280206622          1.0000   
         C         C         1.0       0.8203209104268695  0.2274004569906984  0.05205656085037594          1.0000   
         H         H         1.0       0.7453651594616569  0.12826862306516143           0.2536295531302832 1.0000   
         H         H         1.0       0.8123648230275534  0.169739758313851   0.22188828530836277          1.0000   
         H         H         1.0       0.8209030959631357  0.14588500039148872           0.24547434400802268          1.0000   
         H         H         1.0       0.7544854692157951  0.10073580900900649           0.2808068660647706 1.0000   
         H         H         1.0       0.8034653522759828  0.19661621071481936           0.2837843521939627 1.0000   
         H         H         1.0       0.8001141278988493  0.20983913176209332           0.3506778376150629 1.0000   
         H         H         1.0       0.7305789750131132  0.17424494114500522           0.3356972483811889 1.0000   
         H         H         1.0       0.7337081296262365  0.1570858685397372  0.27376416253605307          1.0000   
         H         H         1.0       0.7916466096959489  0.1638578765740488  0.15102220238978675          1.0000   
         H         H         1.0       0.8142296356389046  0.1884494946493076  0.10324547113396189          1.0000   
         H         H         1.0       0.8188710780869686  0.2431605639593584  0.17914075574388227          1.0000   
         H         H         1.0       0.7930049163094401  0.21618684346700826           0.22317134138240552          1.0000   
         H         H         1.0       0.8788856999145885  0.20795068504083272           0.07122237787876821          1.0000   
         H         H         1.0       0.8492916837180227  0.21278818067471816           0.05119867185937938          1.0000   
         H         H         1.0       0.865570704509693   0.2566223692646999  0.1593440457469453 1.0000   
         H         H         1.0       0.8944796044308283  0.25241049761999224           0.17517307753891692          1.0000   
         H         H         1.0       0.8052610767666477  0.2510191752633774  0.1199624265894558 1.0000   
         H         H         1.0       0.8106336254430886  0.28734441062093624           0.12240016973920367          1.0000   
         H         H         1.0       0.8758918065176763  0.3134688033980186  0.0818371063326822 1.0000   
         H         H         1.0       0.8713988379711267  0.27862978727351145           0.07410136153344767          1.0000   
         H         H         1.0       0.8511059191567201  0.24649833081720962           0.01879971050492946          1.0000   
         H         H         1.0       0.8348868662192952  0.23403789629023808           0.9478464438507408 1.0000   
         H         H         1.0       0.7714229748833737  0.19542824132915937           0.0033256084188279175        1.0000   
         H         H         1.0       0.7861496906024013  0.20947576717881142           0.07358405051832156          1.0000   
         C         C         1.0       0.7065111539301442  0.1568690001551265  0.688344173022216  1.0000   
         C         C         1.0       0.7186758249038334  0.1784758774352305  0.7023529408559062 1.0000   
         C         C         1.0       0.7404559382070437  0.18701564727176873           0.7144035510005479 1.0000   
         C         C         1.0       0.7498149450644167  0.17400688122547608           0.7149200839741203 1.0000   
         C         C         1.0       0.7366705880266712  0.15202096730702483           0.7002599200044466 1.0000   
         C         C         1.0       0.7149835956880096  0.14347292610433574           0.690541391408358  1.0000   
         H         H         1.0       0.7125432514683832  0.18910926800923777           0.7001277700041191 1.0000   
         H         H         1.0       0.7500650689848636  0.20407480422214458           0.7239464308026904 1.0000   
         H         H         1.0       0.7427342806348288  0.13990835782366268           0.6980146282614791 1.0000   
         H         H         1.0       0.7056675876823609  0.12612235308860092           0.682642549785894  1.0000   
         C         C         1.0       0.7663293960143185  0.1500677988944833  0.7729290053331204 1.0000   
         C         C         1.0       0.7809447521772637  0.16698851119376476           0.7476976121395063 1.0000   
         C         C         1.0       0.8003012050823667  0.16792309124700147           0.737539791757474  1.0000   
         C         C         1.0       0.8039813480506182  0.1518949603406315  0.7484677757286046 1.0000   
         C         C         1.0       0.789576734985803   0.13536351638345792           0.7754423915302135 1.0000   
         C         C         1.0       0.7699251467491526  0.13380200973102607           0.7849237641126602 1.0000   
         C         C         1.0       0.7740579292181943  0.18387934354106025           0.7332626549878413 1.0000   
         C         C         1.0       0.7779754214895582  0.1971370700719896  0.7772195378757605 1.0000   
         C         C         1.0       0.7991453128276561  0.2114536676186404  0.7921310038383598 1.0000   
         C         C         1.0       0.803362488929867   0.22052971177789513           0.8309643532507232 1.0000   
         C         C         1.0       0.7847659856956605  0.21629691595635148           0.8556014094737336 1.0000   
         C         C         1.0       0.763814413216816   0.2035361217490204  0.8424882565485684 1.0000   
         C         C         1.0       0.7605266778413986  0.19360210656713625           0.8043753385094685 1.0000   
         C         C         1.0       0.7876724695115657  0.1861701001715036  0.6564129531641679 1.0000   
         C         C         1.0       0.7958906191784885  0.19686455303926897           0.6185770374211346 1.0000   
         C         C         1.0       0.8074429324915597  0.2196044003512068  0.6175598291443359 1.0000   
         C         C         1.0       0.8093905774343657  0.23009322930018114           0.654765306530618  1.0000   
         C         C         1.0       0.7978185220708984  0.21919494696447325           0.6899916721853951 1.0000   
         C         C         1.0       0.7865785227955433  0.196695217944508   0.6920803444438953 1.0000   
         C         C         1.0       0.8176458365336541  0.23342200954967207           0.5743214005951567 1.0000   
         C         C         1.0       0.8685102554101426  0.21529447529356038           0.5725816371426671 1.0000   
         C         C         1.0       0.8490754632046548  0.2024644743724088  0.5528175408182805 1.0000   
         C         C         1.0       0.8336357167049153  0.20896151171004662           0.5546968470645274 1.0000   
         C         C         1.0       0.8374462585841124  0.2284645903249746  0.5746071280938231 1.0000   
         C         C         1.0       0.8570636027910353  0.2403294582031454  0.5958056510315193 1.0000   
         C         C         1.0       0.8726019504005271  0.23430396230815242           0.5935084449337473 1.0000   
         C         C         1.0       0.8268488356170158  0.25925152822209585           0.5723687580696902 1.0000   
         C         C         1.0       0.8148613773851514  0.26753928911343117           0.5922113319713682 1.0000   
         C         C         1.0       0.8231701630435846  0.2891941463336212  0.5946696891761298 1.0000   
         C         C         1.0       0.8445230147874125  0.3039707537793097  0.5842374970304351 1.0000   
         C         C         1.0       0.8564450515063724  0.2969286659047543  0.562669878499997  1.0000   
         C         C         1.0       0.846797206426164   0.27453517651994247           0.5541305338561475 1.0000   
         C         C         1.0       0.8116051815939614  0.22764571972572764           0.4939811993804411 1.0000   
         C         C         1.0       0.7995442678093535  0.21676154920174134           0.4600332398421481 1.0000   
         C         C         1.0       0.7768124156632751  0.20394995295941815           0.46445729582921125          1.0000   
         C         C         1.0       0.7672214537982098  0.202746390609094   0.5034272936377484 1.0000   
         C         C         1.0       0.7807634059534528  0.21335990550227607           0.5381406285497965 1.0000   
         C         C         1.0       0.8026785767494875  0.2250516993915538  0.5334064585461114 1.0000   
         H         H         1.0       0.7519874971982768  0.14992957351066938           0.7871899526435672 1.0000   
         H         H         1.0       0.8141620592765413  0.18098232153396374           0.7214376234073011 1.0000   
         H         H         1.0       0.8193379676290583  0.15390185697731845           0.7386077272522701 1.0000   
         H         H         1.0       0.7598809791018242  0.1212109022077079  0.8081784944128714 1.0000   
         H         H         1.0       0.8142436853750913  0.21363018322526425           0.7765010509113106 1.0000   
         H         H         1.0       0.8198934519037997  0.2308358176305727  0.8359742906819384 1.0000   
         H         H         1.0       0.751406804831978   0.2010590079231151  0.8628916099375984 1.0000   
         H         H         1.0       0.7434558698400592  0.180986294543982   0.7976004594727345 1.0000   
         H         H         1.0       0.7830660219802712  0.16942526171767194           0.6565538709436054 1.0000   
         H         H         1.0       0.7941112562194899  0.18755777543358979           0.5899998697124631 1.0000   
         H         H         1.0       0.8184245455374037  0.24783768086369132           0.6571105940544371 1.0000   
         H         H         1.0       0.7989521241951241  0.23069297905922456           0.7133968507797597 1.0000   
         H         H         1.0       0.8439228317105605  0.18667089827141087           0.5384706642048469 1.0000   
         H         H         1.0       0.8177867728737903  0.19829362987804924           0.5382040213802516 1.0000   
         H         H         1.0       0.8600586765844225  0.25279956570263645           0.6182720695514575 1.0000   
         H         H         1.0       0.8866778524647925  0.24359019621406613           0.610850957011383  1.0000   
         H         H         1.0       0.7990979202233003  0.25785884054277874           0.6066729384953022 1.0000   
         H         H         1.0       0.8145424050249297  0.2959683530901924  0.6114468573594858 1.0000   
         H         H         1.0       0.8730905147789262  0.30675931798508527           0.5503878256048949 1.0000   
         H         H         1.0       0.8573614241513873  0.2692673223958214  0.5383717736027953 1.0000   
         H         H         1.0       0.8296021919418068  0.23941473090005114           0.4902336495921906 1.0000   
         H         H         1.0       0.8076412508512585  0.2189648724601995  0.42897859186072795          1.0000   
         H         H         1.0       0.7497965068251026  0.1947871504819706  0.506642911387441  1.0000   
         H         H         1.0       0.7740235976873782  0.21345968812113053           0.568969029059425  1.0000   
         C         C         1.0       0.8320534030825217  0.012752525893316411         0.43358900593907446          1.0000   
         C         C         1.0       0.8526488422877214  0.02518647450664971           0.41650199805651356          1.0000   
         C         C         1.0       0.860464236366726   0.04646717729349765           0.4070031455094136 1.0000   
         C         C         1.0       0.847415542312105   0.05550047589678365           0.40918092483712676          1.0000   
         C         C         1.0       0.8276044159169037  0.04417494255156245           0.42865319868268015          1.0000   
         C         C         1.0       0.8200172813986362  0.022910797605215763         0.4391916524334739 1.0000   
         H         H         1.0       0.8643175993615397  0.01956669324444592           0.41370362256329296          1.0000   
         H         H         1.0       0.877287456704903   0.0561157526277556  0.3975351732862176 1.0000   
         H         H         1.0       0.8186935895214992  0.052923835097339694         0.4359994451898937 1.0000   
         H         H         1.0       0.8030665970643491  0.01351503564872303           0.4503589929439161 1.0000   
         C         C         1.0       0.8223568729603791  0.07296693571415294           0.35607382541647636          1.0000   
         C         C         1.0       0.8395894722095025  0.08553621853627306           0.382368227831415  1.0000   
         C         C         1.0       0.8430624294742558  0.10621784081426443           0.39329589143667565          1.0000   
         C         C         1.0       0.8294396202484434  0.11365963323726438           0.3781560172481011 1.0000   
         C         C         1.0       0.8129401085472193  0.10043455481754306           0.35105444624560583          1.0000   
         C         C         1.0       0.8087946996384796  0.08016950679591404           0.3397866190264983 1.0000   
         C         C         1.0       0.8574919800100671  0.07905963383176244           0.39195374623123225          1.0000   
         C         C         1.0       0.8691272666347711  0.08463952179354524           0.3464647809908857 1.0000   
         C         C         1.0       0.8846301113029532  0.10518194844550972           0.33374752745867275          1.0000   
         C         C         1.0       0.894009317968065   0.10889361282747673           0.2941619328582706 1.0000   
         C         C         1.0       0.8882090097153418  0.09172412699362    0.2668451211986163 1.0000   
         C         C         1.0       0.8723421545360491  0.07152664888381123           0.27851244510238965          1.0000   
         C         C         1.0       0.8637055901630944  0.06778487295706494           0.3171791607502249 1.0000   
         C         C         1.0       0.8644463643625835  0.09497569418351497           0.46878042511689494          1.0000   
         C         C         1.0       0.8783856252627893  0.10728800307914582           0.502126446258215  1.0000   
         C         C         1.0       0.9010459051945088  0.11721110553505089           0.498089669027128  1.0000   
         C         C         1.0       0.9095171613800743  0.1149356303391658  0.459908559475108  1.0000   
         C         C         1.0       0.8957323286298206  0.10223825349518395           0.4288411616314048 1.0000   
         C         C         1.0       0.8732718629908032  0.09184170344778553           0.4315269365813035 1.0000   
         C         C         1.0       0.9158117967309876  0.13351576025486078           0.5354288544105014 1.0000   
         C         C         1.0       0.8949082790681199  0.1823229308092724  0.5263227087311497 1.0000   
         C         C         1.0       0.885772937440435   0.16581737947647318           0.5575846935891589 1.0000   
         C         C         1.0       0.8928421785609653  0.1507586244990443  0.562429218889881  1.0000   
         C         C         1.0       0.9082052367605497  0.15120659796043578           0.5334231420239063 1.0000   
         C         C         1.0       0.9135391982837001  0.164902910796069   0.4987373203220288 1.0000   
         C         C         1.0       0.9077351775105494  0.1807968029775012  0.4965865101115854 1.0000   
         C         C         1.0       0.9411776912359885  0.14303688629531056           0.5288773863955452 1.0000   
         C         C         1.0       0.9482303593632609  0.12826693985805054           0.5248511377994054 1.0000   
         C         C         1.0       0.9695137802689515  0.13433281171937875           0.5147954550617605 1.0000   
         C         C         1.0       0.9850192938277844  0.15594982157952902           0.5072792770770148 1.0000   
         C         C         1.0       0.9783118355160223  0.1707313863939999  0.5139485693376493 1.0000   
         C         C         1.0       0.9571560831926594  0.16510971963541002           0.523949297088802  1.0000   
         C         C         1.0       0.9232360856814867  0.13709817664108173           0.6130679376564538 1.0000   
         C         C         1.0       0.9199241361769084  0.12950873773305843           0.6526792770327401 1.0000   
         C         C         1.0       0.9068985616063371  0.10762831816229981           0.6606265252083612 1.0000   
         C         C         1.0       0.8962664841009923  0.09293891374669822           0.6277440547316478 1.0000   
         C         C         1.0       0.8986771620194879  0.1005597590649341  0.5873341887376143 1.0000   
         C         C         1.0       0.9115380932777987  0.12304860938830219           0.5799622849633296 1.0000   
         H         H         1.0       0.8189541055997752  0.05686507710240229           0.3451080732013648 1.0000   
         H         H         1.0       0.855470840991804   0.11871540188874793           0.4146573079599329 1.0000   
         H         H         1.0       0.8321215563713401  0.12921903351373823           0.38755351767061436          1.0000   
         H         H         1.0       0.7955864054557942  0.07000919495536927           0.31881349919054647          1.0000   
         H         H         1.0       0.8896614827728593  0.11848734579971243           0.3550449719271635 1.0000   
         H         H         1.0       0.9042772610912937  0.1260407449473037  0.28710931983847854          1.0000   
         H         H         1.0       0.8676861566285856  0.058457254419370115         0.25588244711509517          1.0000   
         H         H         1.0       0.8520029856951672  0.050871746851927836         0.32579392567273063          1.0000   
         H         H         1.0       0.8469807447632942  0.08943990412405128           0.4691923228277954 1.0000   
         H         H         1.0       0.8717816012942536  0.10773788937695536           0.531907789955618  1.0000   
         H         H         1.0       0.9278222162404484  0.12283512860214336           0.4505446927338818 1.0000   
         H         H         1.0       0.9032521652974376  0.09839844246453727           0.40285611488091577          1.0000   
         H         H         1.0       0.8753741890409739  0.16587067638119318           0.5827273556139876 1.0000   
         H         H         1.0       0.8859660504951233  0.14028312989601172           0.5879503099846971 1.0000   
         H         H         1.0       0.9230690613967992  0.16344996786549118           0.4746437546696596 1.0000   
         H         H         1.0       0.9133190890440697  0.1916808429883193  0.4718255080900794 1.0000   
         H         H         1.0       0.9358061937788361  0.11185428456966451           0.520202870533145  1.0000   
         H         H         1.0       0.9726757955789082  0.12014539642674417           0.5124259456674807 1.0000   
         H         H         1.0       0.9898902927265302  0.1889429464088206  0.5074161868373706 1.0000   
         H         H         1.0       0.9537195344027065  0.17866935334197256           0.5242259835730635 1.0000   
         H         H         1.0       0.9344011728229886  0.15460136046690806           0.6067975948501754 1.0000   
         H         H         1.0       0.9305568339271385  0.1407161045143079  0.6799355226604227 1.0000   
         H         H         1.0       0.8843770397768097  0.07581920642143074           0.6328183017641674 1.0000   
         H         H         1.0       0.890169683341464   0.08861323935621483           0.5614270087958276 1.0000   
         C         C         1.0       0.8342679910940107  0.03337559545400073           0.9682224663718733 1.0000   
         C         C         1.0       0.8506881093673303  0.03968854129101619           0.9399823716686079 1.0000   
         C         C         1.0       0.8560891874115284  0.05692279670494757           0.9132267762117195 1.0000   
         C         C         1.0       0.8482199314848983  0.07114559243475636           0.9193451996770184 1.0000   
         C         C         1.0       0.8328421069246876  0.06515988785199947           0.9522155647142296 1.0000   
         C         C         1.0       0.8254411456797314  0.04687802687943615           0.974013791002311  1.0000   
         H         H         1.0       0.8579682947689635  0.03057409058696665           0.9304952689327197 1.0000   
         H         H         1.0       0.8683029864753702  0.06076829148038057           0.890353680799462  1.0000   
         H         H         1.0       0.8246610952725784  0.07417600584048742           0.958355436606198  1.0000   
         H         H         1.0       0.8137048522613678  0.042560485727565   0.9994726365747445 1.0000   
         C         C         1.0       0.8207107220809184  0.08718745719500987           0.8769485538076219 1.0000   
         C         C         1.0       0.8419467240281392  0.10307822412801439           0.8888976345000792 1.0000   
         C         C         1.0       0.8483948853989586  0.12474128664166756           0.882328065132855  1.0000   
         C         C         1.0       0.8335579600908649  0.130691135854578   0.8689948981645126 1.0000   
         C         C         1.0       0.8120832241901069  0.11430204383016644           0.8614471446815805 1.0000   
         C         C         1.0       0.8057714578808596  0.09248063537895587           0.8636848780512247 1.0000   
         C         C         1.0       0.8591721470783326  0.09497909903048503           0.8988906674622761 1.0000   
         C         C         1.0       0.86822024045012    0.09519033453376546           0.8525089206534227 1.0000   
         C         C         1.0       0.8845211878873009  0.11447003780033442           0.8375509899610089 1.0000   
         C         C         1.0       0.8895960273520075  0.11574801250894858           0.79616833171807   1.0000   
         C         C         1.0       0.8781046911613761  0.09858021388005991           0.7690442251770228 1.0000   
         C         C         1.0       0.860318670648756   0.07839697549627106           0.7845302593153491 1.0000   
         C         C         1.0       0.8566167169614398  0.07713855532525297           0.8256482055654695 1.0000   
         C         C         1.0       0.8692661723807057  0.11780897841598068           0.9665371594913904 1.0000   
         C         C         1.0       0.8835210856392797  0.12893507823803535           0.00037889554918380767       1.0000   
         C         C         1.0       0.90343378167888    0.13192210125101136           0.0015995052546272691        1.0000   
         C         C         1.0       0.9092048953221589  0.1220159414887043  0.9690359718053803 1.0000   
         C         C         1.0       0.8962376434991092  0.11289700935833123           0.9351658135654233 1.0000   
         C         C         1.0       0.875622937424522   0.10988655156904308           0.9325862132254799 1.0000   
         C         C         1.0       0.9197558080063244  0.1460331528350878  0.03703992465331785          1.0000   
         C         C         1.0       0.9229047939843033  0.20678681817424327           0.07947342579810188          1.0000   
         C         C         1.0       0.9310209995084204  0.19714345534579714           0.10341172032739594          1.0000   
         C         C         1.0       0.9314290011352782  0.17878712318270584           0.0892274301585856 1.0000   
         C         C         1.0       0.9206400392445037  0.16824746752276312           0.05215696923020449          1.0000   
         C         C         1.0       0.9130126292615593  0.17891940715866358           0.026429892655602555         1.0000   
         C         C         1.0       0.9153590399795388  0.19868111707951988           0.04048492548273063          1.0000   
         C         C         1.0       0.9446722154716649  0.1567537636012188  0.02161506367557093          1.0000   
         C         C         1.0       0.9598294576263734  0.1531523995259124  0.040443166557366815         1.0000   
         C         C         1.0       0.9808575097374744  0.16172927915911664           0.023732183410206484         1.0000   
         C         C         1.0       0.9866512025698526  0.174847735995368   0.98759501696999   1.0000   
         C         C         1.0       0.9719584048562694  0.1798185675469425  0.9703294129672353 1.0000   
         C         C         1.0       0.9517850403094332  0.17094469819857222           0.986774978094278  1.0000   
         C         C         1.0       0.8939963208436976  0.13003317060561115           0.10103260917954276          1.0000   
         C         C         1.0       0.8831200961032548  0.11461632559693276           0.1313259422219375 1.0000   
         C         C         1.0       0.8909479540919322  0.10155325057993035           0.1442692975980319 1.0000   
         C         C         1.0       0.9057762884579631  0.09930775462000456           0.11850871384556101          1.0000   
         C         C         1.0       0.9144386902600945  0.11296588727337652           0.08458556674216833          1.0000   
         C         C         1.0       0.9100740234006693  0.12950597704694025           0.07596410736975895          1.0000   
         H         H         1.0       0.8150878942065094  0.07028967672297676           0.8772973742414298 1.0000   
         H         H         1.0       0.8647864219822117  0.13809669510424352           0.8934791738822775 1.0000   
         H         H         1.0       0.8397358725158827  0.14774354942256748           0.8651500749970261 1.0000   
         H         H         1.0       0.7886440089263366  0.08034937650212667           0.8610200909944986 1.0000   
         H         H         1.0       0.8946741906568277  0.12835778285087532           0.8600768417537964 1.0000   
         H         H         1.0       0.9026908007754599  0.13135490331312957           0.7858081378640894 1.0000   
         H         H         1.0       0.8517710227816773  0.06510584099894837           0.7632916387288544 1.0000   
         H         H         1.0       0.8438378508060663  0.06121856036803705           0.8369939991785572 1.0000   
         H         H         1.0       0.8526704943528133  0.11478820773119291           0.9690915288344656 1.0000   
         H         H         1.0       0.8772631858350157  0.13592102004064327           0.024439555363529285         1.0000   
         H         H         1.0       0.9246810176958014  0.124406399892604   0.9656580766753531 1.0000   
         H         H         1.0       0.9003816716948798  0.10482951754063753           0.9122185924036547 1.0000   
         H         H         1.0       0.9373720305848992  0.20356192382072955           0.13283653066555706          1.0000   
         H         H         1.0       0.9406170325701073  0.1734463686414154  0.10663245147123591          1.0000   
         H         H         1.0       0.9069782943893152  0.17445987454305847           0.9950757356059948 1.0000   
         H         H         1.0       0.9069379871231206  0.20564828372345867           0.024930884158480108         1.0000   
         H         H         1.0       0.9564502444997022  0.14335276052433576           0.06818970696993519          1.0000   
         H         H         1.0       0.9934563235360027  0.15985013049489386           0.04048867766187559          1.0000   
         H         H         1.0       0.974728738961101   0.18797855471910596           0.9401430030163123 1.0000   
         H         H         1.0       0.94016781534287    0.17275060913506596           0.9686730809770796 1.0000   
         H         H         1.0       0.8897590731055741  0.14184679715739001           0.09669180173178894          1.0000   
         H         H         1.0       0.8708195110849987  0.11553372623487888           0.14909428846835318          1.0000   
         H         H         1.0       0.9116389245336298  0.08819027753982411           0.12297672318417135          1.0000   
         H         H         1.0       0.9268901039146681  0.11293082780199971           0.06761358259483509          1.0000   
         C         C         1.0       0.501847892727551   0.324120574363811   0.1884564893987655 1.0000   
         C         C         1.0       0.5104929662130633  0.31285421581348166           0.2089804665040528 1.0000   
         C         C         1.0       0.4968280941152002  0.29192211724867606           0.22361124902537316          1.0000   
         C         C         1.0       0.47445050535865374           0.28112064240387274          0.2172188633905699 1.0000   
         C         C         1.0       0.4667751505060849  0.29139080669010725           0.1912190593735618 1.0000   
         C         C         1.0       0.4798004526191267  0.31282622399868787           0.1792962053104352 1.0000   
         H         H         1.0       0.5266082771270183  0.3191621796942001  0.21835696552838688          1.0000   
         H         H         1.0       0.5038670502174626  0.2848561178785679  0.24198213351977224          1.0000   
         H         H         1.0       0.45064645560653127           0.2829364562158312 0.18327184948778494          1.0000   
         H         H         1.0       0.4724765246406189  0.3196315940172847  0.15969616770477835          1.0000   
         C         C         1.0       0.42918641511523    0.2661366237175707  0.26621703833042987          1.0000   
         C         C         1.0       0.43351821731230505           0.25094108182556063          0.24926312149343288          1.0000   
         C         C         1.0       0.41596441250883864           0.2291993458561066 0.24976479408942528          1.0000   
         C         C         1.0       0.39479382755816517           0.22388315624715133          0.2592558887494221 1.0000   
         C         C         1.0       0.39152460404326583           0.24100535156144376          0.26963740674092457          1.0000   
         C         C         1.0       0.40849612238478267           0.26170261035476794          0.2735119616973193 1.0000   
         C         C         1.0       0.45896660063494693           0.2568775065615286 0.23573707964638937          1.0000   
         C         C         1.0       0.46656050238281255           0.25224782225696435          0.2795441382011029 1.0000   
         C         C         1.0       0.4614196220003634  0.230832492745117   0.29326477968489373          1.0000   
         C         C         1.0       0.4681534899592632  0.22766619075418779           0.3315600088659358 1.0000   
         C         C         1.0       0.4780360216065302  0.24462572881395164           0.35945995515926055          1.0000   
         C         C         1.0       0.4821071522448585  0.2650694521503715  0.3488597236016317 1.0000   
         C         C         1.0       0.475615082078723   0.2682380091915973  0.3099333925671652 1.0000   
         C         C         1.0       0.44445450146250226           0.23476183812330678          0.1661186619685138 1.0000   
         C         C         1.0       0.44579021785008915           0.223090821312412  0.1334697709890545 1.0000   
         C         C         1.0       0.46247736968651376           0.21899388887430996          0.1278868666095884 1.0000   
         C         C         1.0       0.478674494342578   0.22764055234796268           0.15875378912778093          1.0000   
         C         C         1.0       0.47791335609257296           0.23999170586107832          0.19215451710718653          1.0000   
         C         C         1.0       0.4604824409614287  0.2433820834950843  0.1974210596801382 1.0000   
         C         C         1.0       0.46128743104174014           0.20177616919484617          0.09105526468175619          1.0000   
         C         C         1.0       0.3975123211725113  0.1472103844467232  0.051019656799431184         1.0000   
         C         C         1.0       0.4143895912755956  0.15533539000469784           0.024094927824871316         1.0000   
         C         C         1.0       0.43462894322836687           0.1728172964382518 0.03658435213986912          1.0000   
         C         C         1.0       0.43749051815460044           0.18286181134415622          0.0767780632682164 1.0000   
         C         C         1.0       0.4191691523825318  0.1745168157636117  0.10346414458010642          1.0000   
         C         C         1.0       0.39929065204306663           0.15680718556989232          0.09087504768500998          1.0000   
         C         C         1.0       0.4749080291944699  0.19075356198980992           0.10572921712708981          1.0000   
         C         C         1.0       0.49745984414601757           0.2018575999243515 0.10514002281786915          1.0000   
         C         C         1.0       0.5079393222822677  0.19138658778392573           0.11761453632829154          1.0000   
         C         C         1.0       0.49708306173035394           0.16836034886088846          0.12396572427744637          1.0000   
         C         C         1.0       0.47489943412160807           0.15860749276655492          0.12932628393144097          1.0000   
         C         C         1.0       0.4635256799593733  0.16915339215467382           0.12163957215636398          1.0000   
         C         C         1.0       0.4831949269739491  0.21312089632475528           0.020523396964354526         1.0000   
         C         C         1.0       0.48843467771150406           0.22333585535222214          0.9816867000791274 1.0000   
         C         C         1.0       0.480982686210713   0.23698850989602838           0.9718501629905848 1.0000   
         C         C         1.0       0.46817312394697314           0.2402345030668932 0.9993845020529345 1.0000   
         C         C         1.0       0.4639653986928477  0.23170327470214738           0.03775933621279323          1.0000   
         C         C         1.0       0.4707181404607967  0.21734160194804436           0.05035207884488978          1.0000   
         H         H         1.0       0.441736907481138   0.2828934350762357  0.2750936779852727 1.0000   
         H         H         1.0       0.4192115802735734  0.2159464010829091  0.24195130430659456          1.0000   
         H         H         1.0       0.3825594720340515  0.20629212122113283           0.2589374000185007 1.0000   
         H         H         1.0       0.4064645318365552  0.273264959151346   0.2881332867996583 1.0000   
         H         H         1.0       0.45457139520541384           0.21636416488707827          0.2745028318901272 1.0000   
         H         H         1.0       0.4663134467929922  0.21235926078068557           0.3417957778928915 1.0000   
         H         H         1.0       0.4909442331044899  0.27807437957434067           0.36976399874884625          1.0000   
         H         H         1.0       0.47913468717125707           0.28456559007578636          0.3051185246977975 1.0000   
         H         H         1.0       0.4302039063336717  0.23710434121440851           0.16825399062496715          1.0000   
         H         H         1.0       0.43142499368085224           0.21469737927747318          0.11599759720198523          1.0000   
         H         H         1.0       0.49339789158876735           0.22662106709132104          0.15691566814171545          1.0000   
         H         H         1.0       0.49124611374051813           0.24631301931139246          0.21579545048884677          1.0000   
         H         H         1.0       0.4114120914015501  0.14828664303203445           0.9935789760078931 1.0000   
         H         H         1.0       0.4482173684765177  0.176763269686234   0.01475229647644094          1.0000   
         H         H         1.0       0.41987798722244957           0.1796674544542335 0.1346851651087111 1.0000   
         H         H         1.0       0.3864911904744388  0.14973239600059737           0.11331773497233244          1.0000   
         H         H         1.0       0.5056450986235181  0.21929814006230158           0.09653777240288695          1.0000   
         H         H         1.0       0.5254764873789938  0.201094532341124   0.11641501439375901          1.0000   
         H         H         1.0       0.4656083306882796  0.14155171927099894           0.13709095970155663          1.0000   
         H         H         1.0       0.4466545212134624  0.16101838322417344           0.1311080274591078 1.0000   
         H         H         1.0       0.48644213003962844           0.2003592249051283 0.025021533574104603         1.0000   
         H         H         1.0       0.4975868149597305  0.2206182438367576  0.9586653157422241 1.0000   
         H         H         1.0       0.46105544688570294           0.2499358037578222 0.9901007996288175 1.0000   
         H         H         1.0       0.45430068059426143           0.23541684881502067          0.05725897350180079          1.0000   
         C         C         1.0       0.4852329283682362  0.30915500542721397           0.6571201640519266 1.0000   
         C         C         1.0       0.4961619712817744  0.3018133319265096  0.6831058787827724 1.0000   
         C         C         1.0       0.4848893598711895  0.2816222550799747  0.7039836397968935 1.0000   
         C         C         1.0       0.462193313439405   0.2690600724036238  0.7019088371743861 1.0000   
         C         C         1.0       0.4517432828440888  0.2767268292858993  0.67536612027008   1.0000   
         C         C         1.0       0.46315501220240907           0.29620959868218516          0.6535948574213724 1.0000   
         H         H         1.0       0.5134940419642753  0.3124186028207574  0.6887051448537812 1.0000   
         H         H         1.0       0.49407954456104924           0.27637530023653406          0.7219990871524264 1.0000   
         H         H         1.0       0.4337942066941627  0.267697584529329   0.6719470277911084 1.0000   
         H         H         1.0       0.45389245290417574           0.30142777857722713          0.6356205031477152 1.0000   
         C         C         1.0       0.421062805913185   0.25514801935002057           0.753557337945372  1.0000   
         C         C         1.0       0.42474153637330464           0.23901409669219723          0.7377571696868783 1.0000   
         C         C         1.0       0.40931647848027897           0.21766661550769917          0.7439364381412789 1.0000   
         C         C         1.0       0.38908619671478334           0.2120228140355545 0.7623171546872147 1.0000   
         C         C         1.0       0.3842942829223838  0.2286607969355076  0.7706669067972851 1.0000   
         C         C         1.0       0.40071579758758    0.24989034953460196           0.7657526055792185 1.0000   
         C         C         1.0       0.4482549626756154  0.24570749513832604           0.7231281580756549 1.0000   
         C         C         1.0       0.458482399960756   0.24449354257679184           0.768084496784028  1.0000   
         C         C         1.0       0.45778451658920194           0.22523907061451515          0.7815251217973814 1.0000   
         C         C         1.0       0.46320525452606065           0.2230787422550761 0.8237252225293806 1.0000   
         C         C         1.0       0.46775309980003515           0.23974086606552666          0.8525176795260029 1.0000   
         C         C         1.0       0.4708134204297025  0.2592163962978873  0.8387229998920461 1.0000   
         C         C         1.0       0.4665532990868772  0.2619298220192184  0.7972877624743221 1.0000   
         C         C         1.0       0.4331847705818885  0.2202246413229731  0.6538159571637855 1.0000   
         C         C         1.0       0.433455602253488   0.20580950685524607           0.6240667850418381 1.0000   
         C         C         1.0       0.45246528872024533           0.20493859586948013          0.6205569313054717 1.0000   
         C         C         1.0       0.4690945693597211  0.2166435496405032  0.6489673579925173 1.0000   
         C         C         1.0       0.4674392360323099  0.2289713267180912  0.6801607625322853 1.0000   
         C         C         1.0       0.44845127192345785           0.22967670557971173          0.6863335850326188 1.0000   
         C         C         1.0       0.45321708560450596           0.1894073531625671 0.5837308601029294 1.0000   
         C         C         1.0       0.3930454297770011  0.13082546681240717           0.5431708597914324 1.0000   
         C         C         1.0       0.4117358186133447  0.13946192380936623           0.5195341287920491 1.0000   
         C         C         1.0       0.4293937475473794  0.15752670977541866           0.5341580937090239 1.0000   
         C         C         1.0       0.43026021027764383           0.1662601220410537 0.573120982032285  1.0000   
         C         C         1.0       0.4120747075226087  0.15589034344711364           0.5980495567630746 1.0000   
         C         C         1.0       0.39361500708799035           0.13833895868498064          0.5835828199033292 1.0000   
         C         C         1.0       0.4684356015361717  0.17969962584142743           0.5996066314044325 1.0000   
         C         C         1.0       0.4624102366149394  0.16857259680418563           0.6365984475947027 1.0000   
         C         C         1.0       0.4733948861166279  0.15968929626791128           0.6528036933835907 1.0000   
         C         C         1.0       0.4911447463420429  0.1604482390677271  0.6336217282761466 1.0000   
         C         C         1.0       0.4978078081961     0.17173583159560205           0.5956540414201364 1.0000   
         C         C         1.0       0.4873774749574512  0.1824531053397673  0.5801329972490515 1.0000   
         C         C         1.0       0.4821488360670439  0.2215246279431631  0.5360019280579743 1.0000   
         C         C         1.0       0.48806970554525425           0.2369086693499348 0.5050079552776832 1.0000   
         C         C         1.0       0.4720966165312655  0.23690444856362997           0.4800951653294002 1.0000   
         C         C         1.0       0.45028248514869956           0.2218005092418029 0.488896531284302  1.0000   
         C         C         1.0       0.44598795880810777           0.20748283524095257          0.5215818772644492 1.0000   
         C         C         1.0       0.46133031893920184           0.20627062390479012          0.5454797554631311 1.0000   
         H         H         1.0       0.43467079681040094           0.2722389995764826 0.7566082203071243 1.0000   
         H         H         1.0       0.41323333742287904           0.20558339472068876          0.7339490266159124 1.0000   
         H         H         1.0       0.3767273051986594  0.1951318985801766  0.7615891252542655 1.0000   
         H         H         1.0       0.39811068643701025           0.2619882230332179 0.77753419389159   1.0000   
         H         H         1.0       0.45413059855438603           0.212524442414779  0.7573507323168311 1.0000   
         H         H         1.0       0.46166155305823864           0.20732861663850807          0.8328724948615548 1.0000   
         H         H         1.0       0.4725912388110117  0.2715286597681444  0.8615217830449711 1.0000   
         H         H         1.0       0.4686478138444651  0.27779408958173335           0.7885965897698985 1.0000   
         H         H         1.0       0.4206513222840411  0.2249354607350528  0.6515711681690609 1.0000   
         H         H         1.0       0.42220940044876576           0.2000622099151278 0.5993248304154898 1.0000   
         H         H         1.0       0.48513895395769313           0.21846504622746443          0.6465394072263233 1.0000   
         H         H         1.0       0.48114540385403975           0.23618368683033386          0.7018356244830453 1.0000   
         H         H         1.0       0.41376851950023635           0.13532319226612216          0.4878716760612525 1.0000   
         H         H         1.0       0.44346194907785896           0.16544200726042144          0.5119128045189152 1.0000   
         H         H         1.0       0.4114000753171778  0.16286516168240753           0.6283304349278473 1.0000   
         H         H         1.0       0.3802124788068376  0.13160221565814442           0.602777089479925  1.0000   
         H         H         1.0       0.44784077287576896           0.16428520105060446          0.6537096732038989 1.0000   
         H         H         1.0       0.46804898253943045           0.15172646265627332          0.6819403760264059 1.0000   
         H         H         1.0       0.510276278912987   0.1721744030578095  0.5758204898198591 1.0000   
         H         H         1.0       0.49248299923123895           0.18933714846112654          0.5483117326155172 1.0000   
         H         H         1.0       0.4942373080604472  0.22030648636514513           0.5510008660300989 1.0000   
         H         H         1.0       0.5048526215989099  0.24825266508907895           0.49748824968078065          1.0000   
         H         H         1.0       0.4375958859442843  0.2211246714433016  0.46946736485080764          1.0000   
         H         H         1.0       0.42967944169648503           0.19588172100477202          0.5305332717119643 1.0000   
         C         C         1.0       0.22932725506773868           0.1793108044654346 0.43287949003530246          1.0000   
         C         C         1.0       0.22215841396224445           0.15889428662006527          0.41580674114730115          1.0000   
         C         C         1.0       0.23807315238853022           0.15491285300782   0.39860986895378436          1.0000   
         C         C         1.0       0.2602176114015092  0.17080828099565093           0.39792440831571435          1.0000   
         C         C         1.0       0.2665141006245688  0.19070787406883624           0.41775732006697636          1.0000   
         C         C         1.0       0.25134760387827537           0.19558612912498574          0.4326199296783498 1.0000   
         H         H         1.0       0.20575875714650343           0.1467313416418659 0.41729566086314995          1.0000   
         H         H         1.0       0.23218136091126484           0.13912340940126997          0.3831104715621177 1.0000   
         H         H         1.0       0.28260991395073415           0.20262558391983962          0.42013673438747906          1.0000   
         H         H         1.0       0.2569252820207484  0.21241224504305156           0.44420193131233215          1.0000   
         C         C         1.0       0.30510854417691097           0.2049983406678395 0.3454100004268309 1.0000   
         C         C         1.0       0.303055416527209   0.18774337664587537           0.37040727461647716          1.0000   
         C         C         1.0       0.3220530115978522  0.18812186232117462           0.3807182897661992 1.0000   
         C         C         1.0       0.34187148581468935           0.20498047889273377          0.36867935414864195          1.0000   
         C         C         1.0       0.3432352174019726  0.2208989127887788  0.3424357167574349 1.0000   
         C         C         1.0       0.32538171714650455           0.222016778646027  0.3314215991404401 1.0000   
         C         C         1.0       0.27865667144807077           0.16658660641207476          0.3797743963366434 1.0000   
         C         C         1.0       0.2734901787784099  0.15764686961423433           0.3328727386762685 1.0000   
         C         C         1.0       0.28472000578451023           0.14806080004154612          0.3143061531086391 1.0000   
         C         C         1.0       0.2764152542537252  0.1348348183716946  0.27926486381423854          1.0000   
         C         C         1.0       0.25815673552160645           0.13253452250119394          0.2596961907914033 1.0000   
         C         C         1.0       0.24857110363322502           0.14355178478657293          0.2753118769464637 1.0000   
         C         C         1.0       0.25674613171379207           0.1573327174745115 0.3089702154272536 1.0000   
         C         C         1.0       0.2869992776775901  0.15702005750483736           0.4517795144270882 1.0000   
         C         C         1.0       0.2843121885829707  0.142475840558725   0.48388784012543684          1.0000   
         C         C         1.0       0.27302283604117855           0.12063200022623206          0.478330160700215  1.0000   
         C         C         1.0       0.26571520445088864           0.11346000565793268          0.4376603984786828 1.0000   
         C         C         1.0       0.26721528203336214           0.12686179342755363          0.4057520751898929 1.0000   
         C         C         1.0       0.2773827904482112  0.14904414501686944           0.41287592747246876          1.0000   
         C         C         1.0       0.27387923678905185           0.1047662611053338 0.5122378684900071 1.0000   
         C         C         1.0       0.342255541660668   0.12159092974462958           0.49593063048062674          1.0000   
         C         C         1.0       0.33725548995639026           0.1336337662049297 0.5253292718006985 1.0000   
         C         C         1.0       0.316353486150043   0.12872530982711236           0.5309649973965824 1.0000   
         C         C         1.0       0.2991606989564925  0.11130120032907073           0.5075190789822887 1.0000   
         C         C         1.0       0.30426821934178777           0.10125327129181136          0.4750625788453366 1.0000   
         C         C         1.0       0.326439278850378   0.10621196184303598           0.4715818478825618 1.0000   
         C         C         1.0       0.25642460452688903           0.0798883024613191 0.5075251003501187 1.0000   
         C         C         1.0       0.23458095424423067           0.0735667197269743 0.5027196831735045 1.0000   
         C         C         1.0       0.21812929242204865           0.05192041145407658          0.503844899871127  1.0000   
         C         C         1.0       0.22385721630374553           0.036273846522928276         0.5013289104024519 1.0000   
         C         C         1.0       0.24494689618223964           0.041990948395306954         0.5077732636530443 1.0000   
         C         C         1.0       0.261388992331869   0.06341332478470048           0.510533613811331  1.0000   
         C         C         1.0       0.27517990935152403           0.10077989501592279          0.5930167921094786 1.0000   
         C         C         1.0       0.26906453069507147           0.10184020902380023          0.6330389512717516 1.0000   
         C         C         1.0       0.25755494248375355           0.11266829061284336          0.6419034701525822 1.0000   
         C         C         1.0       0.25005132033061794           0.11951702765714506          0.6094850606252717 1.0000   
         C         C         1.0       0.2542252348868417  0.11612941542601954           0.5674426797520062 1.0000   
         C         C         1.0       0.268376202661909   0.10828621632455944           0.5582172836302732 1.0000   
         H         H         1.0       0.2922712508329586  0.20509991104176994           0.32994537613978453          1.0000   
         H         H         1.0       0.32002376231904317           0.17343660281959894          0.39574195126959566          1.0000   
         H         H         1.0       0.357527230481559   0.2043688534507024  0.3766424148336081 1.0000   
         H         H         1.0       0.3269794670716349  0.2356073743832178  0.3145200089351035 1.0000   
         H         H         1.0       0.29822231972866214           0.1489436973556369 0.33122991819179015          1.0000   
         H         H         1.0       0.28426293991804696           0.12522755638356356          0.2686116002193901 1.0000   
         H         H         1.0       0.23417089380481756           0.14205724353668223          0.2586272547578193 1.0000   
         H         H         1.0       0.24822438367280558           0.16607718604754457          0.31677022768291224          1.0000   
         H         H         1.0       0.2948931659905199  0.17350252475979622           0.4601480389913024 1.0000   
         H         H         1.0       0.29187399208494685           0.1495755714644933 0.5136403309316144 1.0000   
         H         H         1.0       0.26097080024622654           0.09646572878911155          0.43147237917773407          1.0000   
         H         H         1.0       0.257890508082216   0.11984735111755791           0.3764338115828204 1.0000   
         H         H         1.0       0.3507544648379499  0.1482984817325872  0.5431491059303993 1.0000   
         H         H         1.0       0.3132070799994506  0.13841629147708862           0.553993846363399  1.0000   
         H         H         1.0       0.2916788018428245  0.09030849956537479           0.45444088543655353          1.0000   
         H         H         1.0       0.33005351455377946           0.09830234176373205          0.44695040150206067          1.0000   
         H         H         1.0       0.2287916495988498  0.08486345549384677           0.5002630144180712 1.0000   
         H         H         1.0       0.2013761801058151  0.04697096308003478           0.5001979178094176 1.0000   
         H         H         1.0       0.2508129177013492  0.02984708063757207           0.5079318828179422 1.0000   
         H         H         1.0       0.27775335480399044           0.06662305215625086          0.5180444184994513 1.0000   
         H         H         1.0       0.28310283383065815           0.09203781632505902          0.58473873768167   1.0000   
         H         H         1.0       0.27372611595594637           0.09420285544977748          0.656084525775609  1.0000   
         H         H         1.0       0.23864173878501935           0.12560132562073772          0.6155086149539228 1.0000   
         H         H         1.0       0.2491093004429719  0.12265269854117836           0.5424165518935493 1.0000   
         C         C         1.0       0.22237624256846167           0.17622959065374125          0.9254097207318562 1.0000   
         C         C         1.0       0.21696032800825432           0.1558728509545313 0.9083756803987043 1.0000   
         C         C         1.0       0.2339624383647677  0.15294769111814652           0.8956413514409953 1.0000   
         C         C         1.0       0.25550743269637916           0.1682016328468274 0.896976810173006  1.0000   
         C         C         1.0       0.26020466902521616           0.18799585335022292          0.9173987952657506 1.0000   
         C         C         1.0       0.24401512790957816           0.19221427955876355          0.9328282484114646 1.0000   
         H         H         1.0       0.20062110772753364           0.14420364766262495          0.8986153339281648 1.0000   
         H         H         1.0       0.22992083389233897           0.13708868089408635          0.8831117580368218 1.0000   
         H         H         1.0       0.2763322040703552  0.20025175163055195           0.9255009207459031 1.0000   
         H         H         1.0       0.24994541177641116           0.20795610703843773          0.9486181184323842 1.0000   
         C         C         1.0       0.30184460079424524           0.20218633999215274          0.861320997257097  1.0000   
         C         C         1.0       0.29717619959263836           0.18212796438146617          0.8791912609882983 1.0000   
         C         C         1.0       0.3138376766883538  0.17733033880059443           0.8816063552579666 1.0000   
         C         C         1.0       0.33485369983747    0.19322177265882765           0.8711687138028958 1.0000   
         C         C         1.0       0.33939194482778046           0.2126604184610004 0.8557931800181803 1.0000   
         C         C         1.0       0.32269012509091777           0.21703849001861508          0.8491348473346755 1.0000   
         C         C         1.0       0.27324112480114726           0.16273077445854883          0.8810104367974515 1.0000   
         C         C         1.0       0.2686286588346759  0.1534790702945231  0.8333563005968496 1.0000   
         C         C         1.0       0.2772016643822964  0.14093030432928544           0.8186170799808224 1.0000   
         C         C         1.0       0.2776477939413036  0.1373194875240388  0.7754910633143357 1.0000   
         C         C         1.0       0.269317015958789   0.14572930864398329           0.7467825256364351 1.0000   
         C         C         1.0       0.2597666694527242  0.15723290361139633           0.7617968219464528 1.0000   
         C         C         1.0       0.259264623106279   0.1605557154010404  0.8044906389617271 1.0000   
         C         C         1.0       0.27989455591378093           0.15578989665633658          0.9592878870099103 1.0000   
         C         C         1.0       0.2818603409752211  0.14378039944691134           0.9874409318912886 1.0000   
         C         C         1.0       0.2734703724680422  0.12141652101199585           0.9831115238768962 1.0000   
         C         C         1.0       0.26554633757341833           0.11243014742352997          0.9441093921471739 1.0000   
         C         C         1.0       0.26286840564885106           0.1244474726674446 0.9138192005034182 1.0000   
         C         C         1.0       0.2712809390351392  0.14696016816854615           0.9194340259089017 1.0000   
         C         C         1.0       0.2739296995414819  0.10646077359754852           0.019454609086908128         1.0000   
         C         C         1.0       0.34229403503811895           0.1257089284205801 0.9999543470093246 1.0000   
         C         C         1.0       0.3373269207246081  0.13773631480746237           0.027471876292430635         1.0000   
         C         C         1.0       0.3163323300181757  0.13197601030991807           0.03489807856983275          1.0000   
         C         C         1.0       0.299411667922071   0.11326660312577974           0.015237938799931884         1.0000   
         C         C         1.0       0.30475717844967337           0.10135617092548273          0.9881613228776486 1.0000   
         C         C         1.0       0.3263210873775149  0.10754557868929845           0.9801869398286622 1.0000   
         C         C         1.0       0.25542162712940686           0.08039808977328275          0.016959500332839297         1.0000   
         C         C         1.0       0.23346010159915198           0.0735295370612741 0.007490849967576318         1.0000   
         C         C         1.0       0.21884184058767875           0.05150148431705787          0.0020128849684141878        1.0000   
         C         C         1.0       0.22534213337841946           0.03636970460344426          0.008821948353473693         1.0000   
         C         C         1.0       0.24566571884224778           0.04353110387371498          0.02600286688825578          1.0000   
         C         C         1.0       0.2603596989408974  0.06556832339647245           0.030928265897865296         1.0000   
         C         C         1.0       0.2785187823683112  0.1120045065147649  0.10156900885559773          1.0000   
         C         C         1.0       0.27432631918515427           0.11891694039528625          0.13871167296455875          1.0000   
         C         C         1.0       0.2585542186334711  0.12457831907733044           0.14155679472539845          1.0000   
         C         C         1.0       0.24807709305039272           0.1262630365250048 0.10537555880869247          1.0000   
         C         C         1.0       0.2518211465411164  0.11970441830270945           0.0675484937402557 1.0000   
         C         C         1.0       0.2677816982586321  0.11278644891942581           0.06432971463292984          1.0000   
         H         H         1.0       0.2879232478603928  0.20531014931506467           0.8545492018968324 1.0000   
         H         H         1.0       0.31106455415065737           0.16174020347337692          0.8923671034356855 1.0000   
         H         H         1.0       0.3480938393368566  0.18958510039522672           0.8739696509171644 1.0000   
         H         H         1.0       0.32679316654803175           0.23247513151254576          0.8349807270309428 1.0000   
         H         H         1.0       0.2846137888971467  0.13428450380493154           0.8397720188264755 1.0000   
         H         H         1.0       0.2821258907992237  0.12689952431498944           0.7602114450795704 1.0000   
         H         H         1.0       0.25159558013715594           0.16324999921827218          0.7415947018625166 1.0000   
         H         H         1.0       0.25342786973241666           0.17194620638933159          0.809648600811574  1.0000   
         H         H         1.0       0.2853709442347197  0.17256266921601332           0.9670845714552129 1.0000   
         H         H         1.0       0.2914443875881833  0.1521799872062037  0.0137846602265763 1.0000   
         H         H         1.0       0.2599030663158641  0.09512483427476384           0.9385129377707719 1.0000   
         H         H         1.0       0.25541800408024995           0.11622608559802548          0.8841271004410305 1.0000   
         H         H         1.0       0.3486957107975491  0.15306154337142053           0.04497999371080729          1.0000   
         H         H         1.0       0.3141198896677479  0.14171156268653567           0.05708836460219653          1.0000   
         H         H         1.0       0.293075766019609   0.08800254944017898           0.9681983935449504 1.0000   
         H         H         1.0       0.32978430722374863           0.0949473895822079 0.9677498681162533 1.0000   
         H         H         1.0       0.22861273063550386           0.08507510359220401          0.004575704122183315         1.0000   
         H         H         1.0       0.20342350897539146           0.04797270037342526          0.9913812201795662 1.0000   
         H         H         1.0       0.2513752469325183  0.031669705995241125         0.031447839108819355         1.0000   
         H         H         1.0       0.27572364677336497           0.0707728804363076 0.04609151807266151          1.0000   
         H         H         1.0       0.289498705032392   0.10559275958597299           0.09601828930802589          1.0000   
         H         H         1.0       0.2835811933590728  0.1176567194932065  0.16482137684273207          1.0000   
         H         H         1.0       0.23583594609331102           0.13119760029590843          0.10376573800612622          1.0000   
         H         H         1.0       0.24252539091677824           0.11923788035276506          0.03955237613779424          1.0000   
         C         C         1.0       0.31158261887914485           0.4490972340424708 0.28918921125053876          1.0000   
         C         C         1.0       0.303171634206491   0.4600313126610968  0.26948685116545795          1.0000   
         C         C         1.0       0.28274520398400216           0.44761737791809775          0.2518843188726745 1.0000   
         C         C         1.0       0.2699920876459599  0.42507608261571567           0.2552640508295813 1.0000   
         C         C         1.0       0.2785890684610575  0.41459425205788575           0.27936506761454866          1.0000   
         C         C         1.0       0.2996230552692094  0.4270986658321206  0.294830579237525  1.0000   
         H         H         1.0       0.3148034263079934  0.47748611391544205           0.2632251309241016 1.0000   
         H         H         1.0       0.2768999665655418  0.45617650919422353           0.23353477870953532          1.0000   
         H         H         1.0       0.26942210717585413           0.39664012956329425          0.2827891868132463 1.0000   
         H         H         1.0       0.30547827733048155           0.41956869155583026          0.3177534432987587 1.0000   
         C         C         1.0       0.2507144702329713  0.3815798460590049  0.2007075036745528 1.0000   
         C         C         1.0       0.236709672332164   0.3879733506065433  0.22093283165271901          1.0000   
         C         C         1.0       0.21383655676868576           0.3731275743269042 0.21902635218501165          1.0000   
         C         C         1.0       0.2073701430434483  0.3542451030871571  0.1969832937422501 1.0000   
         C         C         1.0       0.2203435287202894  0.34806543708725285           0.17704748182288485          1.0000   
         C         C         1.0       0.2416275136924451  0.36153242784569634           0.18059790915649174          1.0000   
         C         C         1.0       0.24550805088436797           0.4126964828201732 0.2346506834382453 1.0000   
         C         C         1.0       0.24104005115647928           0.4204792257270842 0.1904956272532254 1.0000   
         C         C         1.0       0.22018388000049896           0.417027157251724  0.1813737192128073 1.0000   
         C         C         1.0       0.213337046422255   0.41531130682473366           0.14040910193503414          1.0000   
         C         C         1.0       0.22790500334439204           0.4204019262427821 0.10735610199235787          1.0000   
         C         C         1.0       0.24892866336801284           0.4267886556864199 0.11747034282200719          1.0000   
         C         C         1.0       0.2558179994541012  0.4261827826668348  0.15656003433720536          1.0000   
         C         C         1.0       0.22455100454655874           0.40057983597533037          0.3062878021477148 1.0000   
         C         C         1.0       0.21315806613504018           0.40140936005869243          0.34098209246719186          1.0000   
         C         C         1.0       0.20804478061288623           0.41758586073519693          0.34539190292141825          1.0000   
         C         C         1.0       0.21660173533435623           0.43377652273862904          0.3142774244974514 1.0000   
         C         C         1.0       0.22852392729600246           0.43314586531101135          0.28033425803890183          1.0000   
         C         C         1.0       0.23217311317194217           0.41523314971440123          0.2751289872309394 1.0000   
         C         C         1.0       0.19417294461754286           0.417140286578869  0.3861005290270793 1.0000   
         C         C         1.0       0.14201166246422    0.3548816005063337  0.43626309232042665          1.0000   
         C         C         1.0       0.1530138862953834  0.372325228346432   0.46195981274398246          1.0000   
         C         C         1.0       0.16791748902126633           0.391871470718437  0.44577482697020276          1.0000   
         C         C         1.0       0.17540985297103764           0.39401851040810476          0.40447181873942784          1.0000   
         C         C         1.0       0.16235895437290193           0.37656665261721106          0.377216697508476  1.0000   
         C         C         1.0       0.14596993550959322           0.35710369646105566          0.3928838220115289 1.0000   
         C         C         1.0       0.17990961423331986           0.42789933266155483          0.37410394685271403          1.0000   
         C         C         1.0       0.1753474429756849  0.43929379763175724           0.4040056093960595 1.0000   
         C         C         1.0       0.16189507118219448           0.4475948253459902 0.3968103114249062 1.0000   
         C         C         1.0       0.14939650359840764           0.4404272930003915 0.3588902054614435 1.0000   
         C         C         1.0       0.15363054592039052           0.4287373988161851 0.3289077610936693 1.0000   
         C         C         1.0       0.16902899218071676           0.4235212869960026 0.33547905846635556          1.0000   
         C         C         1.0       0.21993874746154937           0.41745620275013434          0.4441773984948152 1.0000   
         C         C         1.0       0.23487978397358955           0.42764513867548265          0.47509177857561957          1.0000   
         C         C         1.0       0.24578481381593184           0.44964557161422236          0.47957841634834286          1.0000   
         C         C         1.0       0.24111059908740504           0.46201633060638847          0.4513272545418843 1.0000   
         C         C         1.0       0.22515184648106806           0.4514503724133011 0.4218098079474535 1.0000   
         C         C         1.0       0.21479489585810047           0.42899524980524334          0.416132430646368  1.0000   
         H         H         1.0       0.2687482435728941  0.39134984865526967           0.2008705750463734 1.0000   
         H         H         1.0       0.20169584348660777           0.37625728462721647          0.2328239713703801 1.0000   
         H         H         1.0       0.18985016527706    0.3444031206959718  0.19396491038433206          1.0000   
         H         H         1.0       0.2518587287773125  0.35635053393730376           0.16183963260047127          1.0000   
         H         H         1.0       0.20794378009264822           0.41164669634462075          0.2054679229095747 1.0000   
         H         H         1.0       0.19673840854516192           0.4112871779415458 0.13389226212042   1.0000   
         H         H         1.0       0.262831979055487   0.4318973592569697  0.09483387766513213          1.0000   
         H         H         1.0       0.2726597881405421  0.4301928174347413  0.15910703933527137          1.0000   
         H         H         1.0       0.22662361821477606           0.3862030025375555 0.30568610222842574          1.0000   
         H         H         1.0       0.2095090026976716  0.38951466557988373           0.3665823926904585 1.0000   
         H         H         1.0       0.21529995927832613           0.44809290808735663          0.3208740932500251 1.0000   
         H         H         1.0       0.23344641898062402           0.44537864237189395          0.25410515322171334          1.0000   
         H         H         1.0       0.15242670960617505           0.37049606769882293          0.4957766956732548 1.0000   
         H         H         1.0       0.1785952497834127  0.405108305183463   0.46708073266550915          1.0000   
         H         H         1.0       0.16524465950769512           0.37491740614859653          0.3460594107536422 1.0000   
         H         H         1.0       0.13708802602358736           0.3436935779961936 0.3713529585218712 1.0000   
         H         H         1.0       0.182596730882175   0.440181239238072   0.43624036926250104          1.0000   
         H         H         1.0       0.15888290067619124           0.45699694577487665          0.41959189090911436          1.0000   
         H         H         1.0       0.14589810490107039           0.42574979577824135          0.29725704382501317          1.0000   
         H         H         1.0       0.17245780879601272           0.41439316820399225          0.3112479361578385 1.0000   
         H         H         1.0       0.21280361966500366           0.40090564844649157          0.4398432979548506 1.0000   
         H         H         1.0       0.23983664620742573           0.41703725423373045          0.4890858350769304 1.0000   
         H         H         1.0       0.2477451342980635  0.4799351092199396  0.4517513551513426 1.0000   
         H         H         1.0       0.2204389621468344  0.4615199544671679  0.4028763754675336 1.0000   
         C         C         1.0       0.31539865381993476           0.4509738499179073 0.7874348526828694 1.0000   
         C         C         1.0       0.310323054471371   0.465271725435161   0.7687978177469637 1.0000   
         C         C         1.0       0.29045765971368886           0.45759043510341213          0.7479146642596037 1.0000   
         C         C         1.0       0.27556245830692466           0.4348019839140045 0.7440164425097232 1.0000   
         C         C         1.0       0.2807715354160099  0.4202531372191026  0.7627267417168856 1.0000   
         C         C         1.0       0.3007890864456843  0.4286610283936031  0.7821215196550572 1.0000   
         H         H         1.0       0.3188948731308194  0.48220464763346915           0.7742755458976063 1.0000   
         H         H         1.0       0.28535958811725465           0.46930261338671253          0.7362462970851955 1.0000   
         H         H         1.0       0.2689709441689092  0.40191442113667275           0.7644403810247024 1.0000   
         H         H         1.0       0.3041083015809646  0.4169389659700016  0.7962856803853773 1.0000   
         C         C         1.0       0.26243375462143304           0.40107869009024505          0.6681249935401354 1.0000   
         C         C         1.0       0.24797335799843223           0.4030020747327189 0.6942001900140222 1.0000   
         C         C         1.0       0.22756102380947854           0.3849620076656109 0.7011482203250122 1.0000   
         C         C         1.0       0.2209624339491788  0.3645741455590259  0.6831268143944573 1.0000   
         C         C         1.0       0.2356582728620305  0.3623184244555606  0.6583488504846654 1.0000   
         C         C         1.0       0.255713150884089   0.3808801453392339  0.649595237581475  1.0000   
         C         C         1.0       0.2529242802566998  0.42458408477772613           0.7208965599926893 1.0000   
         C         C         1.0       0.25237782083160665           0.4375675119279922 0.6792287182446868 1.0000   
         C         C         1.0       0.23250344221065444           0.4333545015917317 0.663613234128748  1.0000   
         C         C         1.0       0.2313355910395718  0.44204096754311645           0.6238510078267481 1.0000   
         C         C         1.0       0.2506493814807561  0.4547420716067405  0.6016892907945331 1.0000   
         C         C         1.0       0.27001525133012155           0.45799756254930885          0.6161283868874328 1.0000   
         C         C         1.0       0.2714497061823917  0.4497075472853453  0.6528973801288828 1.0000   
         C         C         1.0       0.23154616935788097           0.4083185329775949 0.7919427838962898 1.0000   
         C         C         1.0       0.21982962074811682           0.40872624268166835          0.8253388786605497 1.0000   
         C         C         1.0       0.2134262525498524  0.4240787766440926  0.8272892273143043 1.0000   
         C         C         1.0       0.22304164214314687           0.442146620382686  0.7980268867204023 1.0000   
         C         C         1.0       0.23589639803456328           0.4418115383858566 0.7651893885875732 1.0000   
         C         C         1.0       0.23962821627707154           0.4242960539489256 0.7601822981654301 1.0000   
         C         C         1.0       0.1963366599150478  0.4220189808571222  0.8645309384474119 1.0000   
         C         C         1.0       0.14418951885657316           0.3526746994960624 0.8832606340132741 1.0000   
         C         C         1.0       0.14819618145858268           0.3683204955772191 0.9132679593969933 1.0000   
         C         C         1.0       0.16191662305568952           0.3908592516995502 0.9044016599782391 1.0000   
         C         C         1.0       0.17599160777799028           0.39660399825163223          0.8690005727124797 1.0000   
         C         C         1.0       0.1698212699540644  0.3804115960292977  0.8377980804927376 1.0000   
         C         C         1.0       0.15439291047077366           0.3583939215001288 0.8447944780627584 1.0000   
         C         C         1.0       0.18502023486867744           0.4360232576253019 0.8498526862166996 1.0000   
         C         C         1.0       0.19467336336252075           0.458087606898116  0.8588999186335505 1.0000   
         C         C         1.0       0.1865197961277294  0.4707862414119016  0.8426754578351888 1.0000   
         C         C         1.0       0.16820262079898937           0.4620314777536404 0.8187547487890698 1.0000   
         C         C         1.0       0.15891905926268707           0.4398950105995908 0.8088679933018698 1.0000   
         C         C         1.0       0.16729865070224903           0.42774572587101095          0.8225359100224207 1.0000   
         C         C         1.0       0.2014060718974596  0.43654124011449696           0.9422207906703816 1.0000   
         C         C         1.0       0.2118322916859001  0.4432270273340697  0.9810350118265625 1.0000   
         C         C         1.0       0.22798929796744427           0.438962443996852  0.9909147190117957 1.0000   
         C         C         1.0       0.23526421304108824           0.4306386931361401 0.960327917514837  1.0000   
         C         C         1.0       0.2268032305347471  0.42698550124186596           0.9207836968890357 1.0000   
         C         C         1.0       0.20890608648852893           0.4292136573469492 0.9099277980198417 1.0000   
         H         H         1.0       0.2779629024626751  0.4145372527062284  0.6623555886532866 1.0000   
         H         H         1.0       0.21654370389261285           0.38654956350173536          0.7209000149367605 1.0000   
         H         H         1.0       0.2038233595312362  0.34999107596234974           0.6895594476451734 1.0000   
         H         H         1.0       0.2680738917439162  0.37931019539121513           0.6326847324623235 1.0000   
         H         H         1.0       0.21792633803187328           0.4246798234335314 0.68253918847856   1.0000   
         H         H         1.0       0.21556397412971642           0.43796021595567275          0.608062694490361  1.0000   
         H         H         1.0       0.28377881401332977           0.4646285640466599 0.5959061518175357 1.0000   
         H         H         1.0       0.28685146145809826           0.4521608966105744 0.6638965938176592 1.0000   
         H         H         1.0       0.2353064394871557  0.3955940867544899  0.7871787767763674 1.0000   
         H         H         1.0       0.21639261372897434           0.3965164062125749 0.846615810957945  1.0000   
         H         H         1.0       0.22115215753206888           0.4565159642313666 0.8023566695885843 1.0000   
         H         H         1.0       0.24298474071230233           0.455310758465262  0.7432021355768254 1.0000   
         H         H         1.0       0.1424252305351995  0.3653444475393013  0.9436914484599719 1.0000   
         H         H         1.0       0.16297053341027587           0.40353934449810147          0.9226555279965053 1.0000   
         H         H         1.0       0.17821582378247428           0.385049696005973  0.8074827684565791 1.0000   
         H         H         1.0       0.15077596099613283           0.34690906276764993          0.819964713534251  1.0000   
         H         H         1.0       0.20824904275385028           0.4651450704818134 0.8799122392544222 1.0000   
         H         H         1.0       0.19477170919872597           0.48817623611029326          0.8543010720451346 1.0000   
         H         H         1.0       0.14368844203404474           0.43288347098040364          0.7908697943428982 1.0000   
         H         H         1.0       0.15896218242684215           0.4101007562015838 0.8105062486929562 1.0000   
         H         H         1.0       0.19069986178192222           0.44234349133978784          0.9367215378766491 1.0000   
         H         H         1.0       0.20552780808361606           0.4503894690502177 0.0005852038350705243        1.0000   
         H         H         1.0       0.2490230027794685  0.4277663913814068  0.9676153508376457 1.0000   
         H         H         1.0       0.2347212342052247  0.4210302250531054  0.89879876992581   1.0000   
         C         C         1.0       0.19106710542674796           0.19103378256743173          0.008132873677596289         1.0000   
         C         C         1.0       0.1686068632383744  0.18118794022860177           0.01987389698687774          1.0000   
         C         C         1.0       0.16084292498345826           0.19446723902737212          0.03645427272249297          1.0000   
         C         C         1.0       0.17429037236525877           0.2170875732693524 0.040022877948740224         1.0000   
         C         C         1.0       0.19597535482530032           0.22663114128014272          0.02631784136586918          1.0000   
         C         C         1.0       0.20387238514992118           0.21389013644850038          0.011649251308955062         1.0000   
         H         H         1.0       0.15578668219180328           0.16609967736785805          0.012172833999441472         1.0000   
         H         H         1.0       0.14319985748856504           0.18773664045844862          0.04041221152618405          1.0000   
         H         H         1.0       0.2065014846722078  0.2441536562513176  0.02717463492252104          1.0000   
         H         H         1.0       0.2210163531803342  0.2235992221191351  0.001520183020966886         1.0000   
         C         C         1.0       0.19785760607381075           0.2623181660813592 0.09851504565144378          1.0000   
         C         C         1.0       0.182595531662964   0.25744961010724343           0.06712657969841171          1.0000   
         C         C         1.0       0.17949857913029046           0.2742617939546454 0.05620358747766346          1.0000   
         C         C         1.0       0.19252234178485414           0.2946927777917861 0.07040085353928378          1.0000   
         C         C         1.0       0.20831343362388507           0.29894337850081176          0.09875910232206901          1.0000   
         C         C         1.0       0.21168988941779637           0.2825809844001381 0.11166914636135246          1.0000   
         C         C         1.0       0.16462053760280873           0.23271143223561233          0.05599425055818613          1.0000   
         C         C         1.0       0.15118187390923624           0.22321148445446934          0.09896493756793275          1.0000   
         C         C         1.0       0.1386735191083148  0.2321885788687424  0.11397290342079404          1.0000   
         C         C         1.0       0.12865947722881632           0.22747962247041228          0.1517996605583783 1.0000   
         C         C         1.0       0.130788792558927   0.21313420926751786           0.17830401269014415          1.0000   
         C         C         1.0       0.1440929007312769  0.2045431762588392  0.16717111430649217          1.0000   
         C         C         1.0       0.15294208523244854           0.2091120424928814 0.12673252217048533          1.0000   
         C         C         1.0       0.15804597272117266           0.23906396455985454          0.9791206870166593 1.0000   
         C         C         1.0       0.1453415002612343  0.2376260504515126  0.9454007514649152 1.0000   
         C         C         1.0       0.12209726863590133           0.2258935096903496 0.9467041030127558 1.0000   
         C         C         1.0       0.11308061964493574           0.21642250194856044          0.985224800484943  1.0000   
         C         C         1.0       0.1261631478924056  0.21774595502564814           0.018349143721918294         1.0000   
         C         C         1.0       0.14923655836992636           0.23043725698164189          0.01666486591217402          1.0000   
         C         C         1.0       0.10733692169959029           0.22618671404874477          0.90863360510444   1.0000   
         C         C         1.0       0.13208682338356179           0.29709767285134603          0.916988379464556  1.0000   
         C         C         1.0       0.1388071335792182  0.288847588088128   0.8841813014844089 1.0000   
         C         C         1.0       0.1320778685550123  0.2677299347518784  0.8824399448237478 1.0000   
         C         C         1.0       0.11611586515170656           0.25219450302873847          0.9102692632843307 1.0000   
         C         C         1.0       0.10875450308520501           0.26044021997717576          0.9422953418390241 1.0000   
         C         C         1.0       0.11832733739034493           0.2828973216354611 0.9484855549911028 1.0000   
         C         C         1.0       0.08156997354703976           0.21175628492741874          0.9127930806005383 1.0000   
         C         C         1.0       0.07319976921394641           0.19056203436999367          0.9217608759351029 1.0000   
         C         C         1.0       0.05093289580885288           0.17680931075347844          0.9272929101009776 1.0000   
         C         C         1.0       0.037531301659212694          0.18592102373625863          0.9190989435360133 1.0000   
         C         C         1.0       0.0451458288822883  0.20557986566284    0.9022893949686273 1.0000   
         C         C         1.0       0.06730516583225837           0.2180385181644461 0.8959207248055177 1.0000   
         C         C         1.0       0.10384023766976155           0.22237280881166535          0.829658953833858  1.0000   
         C         C         1.0       0.10852866487442112           0.21829841140084097          0.7897540304785804 1.0000   
         C         C         1.0       0.12039251159810183           0.2081330195665816 0.786763061100054  1.0000   
         C         C         1.0       0.12814970503440984           0.20261224065185757          0.8230760168718246 1.0000   
         C         C         1.0       0.12431211234098    0.20798915552313993           0.862204178686867  1.0000   
         C         C         1.0       0.11214398922367351           0.21824824507693763          0.8651387524346884 1.0000   
         H         H         1.0       0.19957682210476282           0.24895886205732534          0.11072854809305069          1.0000   
         H         H         1.0       0.16554878039043405           0.2717770381192279 0.03828315418810053          1.0000   
         H         H         1.0       0.1880515500975658  0.3064217269224501  0.061200116485238265         1.0000   
         H         H         1.0       0.2248680498703115  0.2865243008391835  0.13245462153112864          1.0000   
         H         H         1.0       0.13709521081760012           0.24531361112871206          0.09754107903809935          1.0000   
         H         H         1.0       0.11956401513757818           0.23529842210753477          0.16418426420120177          1.0000   
         H         H         1.0       0.14647770094052892           0.19474056578102655          0.1876845713411877 1.0000   
         H         H         1.0       0.1666098448591166  0.20656297279427344           0.12079547071997099          1.0000   
         H         H         1.0       0.1755037568800206  0.24934937420343206           0.9738045456216664 1.0000   
         H         H         1.0       0.15360341385456003           0.24837896578478763          0.9182174927769292 1.0000   
         H         H         1.0       0.09479675398526824           0.2071359868655275 0.9888391818539419 1.0000   
         H         H         1.0       0.11676181108917616           0.20781298995721126          0.04519630587144457          1.0000   
         H         H         1.0       0.15038177328905752           0.30071676141475046          0.8637823663256865 1.0000   
         H         H         1.0       0.13921519186100312           0.263034475113936  0.8570364296868691 1.0000   
         H         H         1.0       0.09907880957066832           0.24993342124949947          0.9673610672478977 1.0000   
         H         H         1.0       0.11335769947835354           0.2886225932161123 0.9749178534062758 1.0000   
         H         H         1.0       0.08434113435672115           0.18436483459068742          0.9287831464671136 1.0000   
         H         H         1.0       0.042994223158572945          0.16051168699866514          0.9405585633293163 1.0000   
         H         H         1.0       0.03429162069690344           0.21196362096680188          0.9001178281370938 1.0000   
         H         H         1.0       0.0741482627456738  0.23527479263927528           0.8859500798167536 1.0000   
         H         H         1.0       0.09568376721413356           0.2311075473631622 0.8325805244708173 1.0000   
         H         H         1.0       0.1020110785626701  0.22214732404378706           0.7635460352825872 1.0000   
         H         H         1.0       0.13790587132866972           0.19519001965522   0.8196576988077497 1.0000   
         H         H         1.0       0.1326342137918553  0.20579225317074762           0.887977149711617  1.0000   
         C         C         1.0       0.19996840151201672           0.19954783110417676          0.5158477575659327 1.0000   
         C         C         1.0       0.17966490617627692           0.1904962308053512 0.5335899223678493 1.0000   
         C         C         1.0       0.17083506358657613           0.2033205449722665 0.5455401014122103 1.0000   
         C         C         1.0       0.1828949525962423  0.2263049319113381  0.5391420624347012 1.0000   
         C         C         1.0       0.20262163367066358           0.2350227320977875 0.5183983253951014 1.0000   
         C         C         1.0       0.21168231359852313           0.22213461254086733          0.5096575648188579 1.0000   
         H         H         1.0       0.1700236130979593  0.17324406762574943           0.5422096432592455 1.0000   
         H         H         1.0       0.1553301075306552  0.1964188030912244  0.5621796270962176 1.0000   
         H         H         1.0       0.21229968994483917           0.2519713507528255 0.5092230226840819 1.0000   
         H         H         1.0       0.22776092594974995           0.22680728155047739          0.49940347939796853          1.0000   
         C         C         1.0       0.21193166274133204           0.2769031236589746 0.5718404803888706 1.0000   
         C         C         1.0       0.19080029581624008           0.2678540908102638 0.5569059371736979 1.0000   
         C         C         1.0       0.1838901465449272  0.28295529908266515           0.5479930301877743 1.0000   
         C         C         1.0       0.19647300171734347           0.3047167004424171 0.5604604869804993 1.0000   
         C         C         1.0       0.21700314050101857           0.31211126559102204          0.5803050528941861 1.0000   
         C         C         1.0       0.22467012703886013           0.298303712957518  0.5849979600031234 1.0000   
         C         C         1.0       0.1743801699432833  0.2421392463225517  0.5544467884718817 1.0000   
         C         C         1.0       0.16615109795361796           0.2372260606084321 0.6019901089661106 1.0000   
         C         C         1.0       0.1499824447621051  0.2415264112156869  0.6176124165424499 1.0000   
         C         C         1.0       0.14474744001740672           0.2389050025828816 0.6593195390413609 1.0000   
         C         C         1.0       0.15441050218000532           0.23158534120022956          0.6856532470371438 1.0000   
         C         C         1.0       0.17034542689069798           0.22736085823587474          0.673488370202337  1.0000   
         C         C         1.0       0.1762186822690423  0.2306040799632438  0.6311566055871067 1.0000   
         C         C         1.0       0.16309264712761273           0.24616458613553444          0.47960576527251736          1.0000   
         C         C         1.0       0.14739736420869906           0.24297791510292577          0.4494797828846944 1.0000   
         C         C         1.0       0.12512864304828972           0.23015979341056295          0.45650975962206597          1.0000   
         C         C         1.0       0.11902861705691971           0.21760469756958392          0.4935315375647931 1.0000   
         C         C         1.0       0.13354454713226668           0.22090389573811114          0.5237479207673119 1.0000   
         C         C         1.0       0.15649900197509198           0.23570563415155205          0.5172037971092937 1.0000   
         C         C         1.0       0.1096996591091761  0.23237076555264422           0.42388427477935736          1.0000   
         C         C         1.0       0.13414017382370283           0.29941152817431843          0.4651972150047875 1.0000   
         C         C         1.0       0.14024599709829705           0.2954056851066108 0.42665718239585065          1.0000   
         C         C         1.0       0.13153552884929176           0.2743589557393501 0.4129444132967636 1.0000   
         C         C         1.0       0.1154024431146211  0.2568917520700375  0.43610672161968483          1.0000   
         C         C         1.0       0.10920648778394958           0.2607223535597371 0.47479958870329986          1.0000   
         C         C         1.0       0.11777020623281284           0.28205074795272694          0.4877492827581639 1.0000   
         C         C         1.0       0.08383596804587659           0.2150413284469259 0.42824829778806184          1.0000   
         C         C         1.0       0.07628120130479706           0.19284578622520285          0.4345457562201538 1.0000   
         C         C         1.0       0.05389671521607178           0.17787978914910518          0.4419881035415351 1.0000   
         C         C         1.0       0.03842656438097252           0.18414856495376586          0.44333979540425894          1.0000   
         C         C         1.0       0.04605141549887366           0.2066434995442478 0.4390910597051674 1.0000   
         C         C         1.0       0.06802190556911245           0.2210179132869959 0.42896217525676916          1.0000   
         C         C         1.0       0.10888364944969627           0.23720448829611646          0.34506165039797704          1.0000   
         C         C         1.0       0.11590102414468821           0.23686462354710336          0.304870740623372  1.0000   
         C         C         1.0       0.12854009895472043           0.22715962487675823          0.2958805219706725 1.0000   
         C         C         1.0       0.13121423476538085           0.21565093927584725          0.32527393848050873          1.0000   
         C         C         1.0       0.12336186151361743           0.2152845657565747 0.3654352395528762 1.0000   
         C         C         1.0       0.11558471070946857           0.2288018109186997 0.3779725542587152 1.0000   
         H         H         1.0       0.2170762283720286  0.2657786832047701  0.5840283674551386 1.0000   
         H         H         1.0       0.16772797116107246           0.2783089710716256 0.5388125543539313 1.0000   
         H         H         1.0       0.19110569006999964           0.3161336303095991 0.5566453285250644 1.0000   
         H         H         1.0       0.23956216622547996           0.30134208487045255          0.6010997284796867 1.0000   
         H         H         1.0       0.1411920519246699  0.24848218013733048           0.6008655392096819 1.0000   
         H         H         1.0       0.13360964980332457           0.24386804311277033          0.669886293816968  1.0000   
         H         H         1.0       0.17810245781151998           0.22178849015303473          0.6955783884199529 1.0000   
         H         H         1.0       0.18932662126025618           0.22715290249321185          0.6225041718298603 1.0000   
         H         H         1.0       0.18049305122094633           0.2572345057562074 0.4752750880398143 1.0000   
         H         H         1.0       0.1535206635243894  0.2499365709236846  0.41862612363712653          1.0000   
         H         H         1.0       0.1029083054763114  0.20794404953490517           0.5027876936180851 1.0000   
         H         H         1.0       0.13009816767066665           0.21383355901380285          0.5557186799253947 1.0000   
         H         H         1.0       0.1515087354698862  0.308125340611812   0.406675114168678  1.0000   
         H         H         1.0       0.1372162818566398  0.2699068227048781  0.3845857785408323 1.0000   
         H         H         1.0       0.09559063653324203           0.24746725834085323          0.49071619371786657          1.0000   
         H         H         1.0       0.10997861926889226           0.28329106610051075          0.5157193741575206 1.0000   
         H         H         1.0       0.08784691939966842           0.18680801626659055          0.4335590926097221 1.0000   
         H         H         1.0       0.046673746399725616          0.16017578487540005          0.44793577927515044          1.0000   
         H         H         1.0       0.035291034810596464          0.2137306712751646 0.442395132814869  1.0000   
         H         H         1.0       0.07392429238269455           0.23834004623031202          0.42408540140028106          1.0000   
         H         H         1.0       0.10033144712110162           0.24530155705319256          0.3538074564305307 1.0000   
         H         H         1.0       0.11192747766105843           0.24502938806287822          0.2820746909544665 1.0000   
         H         H         1.0       0.13963572718647346           0.20679422944955075          0.31714586061522276          1.0000   
         H         H         1.0       0.12396629344479834           0.20391187948141054          0.3881741318855595 1.0000   
         C         C         1.0       0.12905300462938538           0.2069408435675894 0.7434736908777069 1.0000   
         C         C         1.0       0.14900909589143244           0.2295366746109059 0.7321561970131879 1.0000   
         H         H         1.0       0.13284897661511677           0.19249841002975132          0.7416001093648978 1.0000   
         H         H         1.0       0.11506758832790619           0.20106511828997206          0.7222645265508091 1.0000   
         H         H         1.0       0.14584130194511108           0.24238600969917404          0.740891647494623  1.0000   
         H         H         1.0       0.16303346420374384           0.232188836950158  0.7501065898607037 1.0000   
         C         C         1.0       0.12051993935695372           0.20965437807065723          0.22201074912985244          1.0000   
         C         C         1.0       0.13779093025953962           0.2265331167093908 0.25273695764309745          1.0000   
         H         H         1.0       0.11602907796925664           0.19304282058144034          0.23528842305803527          1.0000   
         H         H         1.0       0.10412219881600981           0.20905051472514033          0.22323174341138025          1.0000   
         H         H         1.0       0.14272054531056053           0.2422742561666982 0.24019524500940093          1.0000   
         H         H         1.0       0.15107145023986887           0.22351977812344173          0.25409905925095255          1.0000   
         C         C         1.0       0.12692622742449616           0.3283130085455267 0.8912568421044108 1.0000   
         C         C         1.0       0.1376906928742405  0.3204838687962019  0.9241960480959815 1.0000   
         H         H         1.0       0.1119862823194396  0.32563057740799506           0.9031372008992965 1.0000   
         H         H         1.0       0.12321229733708715           0.3189534007168993 0.8608936252182138 1.0000   
         H         H         1.0       0.15548462683150746           0.32925595674075187          0.9225067779429221 1.0000   
         H         H         1.0       0.13316282844329708           0.3220613740605834 0.9571831226727857 1.0000   
         C         C         1.0       0.22828426836101287           0.33559206240699174          0.5965658360566766 1.0000   
         C         C         1.0       0.22989847197269223           0.3395983745192104 0.6443203568134843 1.0000   
         H         H         1.0       0.2449749596047357  0.3438491974100468  0.5849241127420295 1.0000   
         H         H         1.0       0.22228442482622351           0.34548176305904954          0.579950669119097  1.0000   
         H         H         1.0       0.24184337719757096           0.3348421168332657 0.6570050609520292 1.0000   
         H         H         1.0       0.21397740129311058           0.3284947521314167 0.6580003685528257 1.0000   
         C         C         1.0       0.2606944388919388  0.4586550429488168  0.5178038871301482 1.0000   
         C         C         1.0       0.249033789638404   0.4614002121926254  0.5564719785788566 1.0000   
         H         H         1.0       0.2657536165106989  0.4472402076026708  0.5271525861000285 1.0000   
         H         H         1.0       0.27382132281894644           0.47522588956046474          0.5076195815804778 1.0000   
         H         H         1.0       0.25284967446799805           0.4781011155706619 0.5599856317610193 1.0000   
         H         H         1.0       0.23130018245988393           0.4535118388707487 0.5495600098421589 1.0000   
         C         C         1.0       0.22070454261278466           0.4216480263970765 0.06259670677396834          1.0000   
         C         C         1.0       0.23569103115797108           0.44198810317253256          0.03673669594149033          1.0000   
         H         H         1.0       0.2043470047662119  0.418600123340677   0.06152195502994473          1.0000   
         H         H         1.0       0.21991103513001975           0.40757828774674715          0.04341419895564943          1.0000   
         H         H         1.0       0.25194344565248156           0.4440005753580276 0.033908518146656956         1.0000   
         H         H         1.0       0.23788127794857994           0.4575077525297206 0.04960470453189719          1.0000   
         C         C         1.0       0.12753457429083653           0.3312144483647677 0.45479155660846693          1.0000   
         C         C         1.0       0.14008304358811602           0.3218881720121688 0.4801698398117341 1.0000   
         H         H         1.0       0.11830647893854741           0.3209647398676583 0.4295884980682112 1.0000   
         H         H         1.0       0.11518010227765253           0.3313580135643968 0.4763521208979149 1.0000   
         H         H         1.0       0.13862821126182934           0.3208416792639577 0.5149395770126172 1.0000   
         H         H         1.0       0.1570890594412693  0.33297307968221734           0.4785718884675055 1.0000   
         C         C         1.0       0.2099171746030638  0.3250971088806109  0.15472663237968182          1.0000   
         C         C         1.0       0.2217052541471615  0.3218585790860661  0.11728875600333834          1.0000   
         H         H         1.0       0.19308343052983462           0.3205453545489546 0.14292745519990369          1.0000   
         H         H         1.0       0.2061908292903725  0.3127154732112462  0.1799208447207253 1.0000   
         H         H         1.0       0.23838530355158205           0.32539848552188433          0.12685792258529321          1.0000   
         H         H         1.0       0.2230993652935457  0.3336477560440418  0.09256171979381313          1.0000   
         C         C         1.0       0.20433861232919773           0.18044445382644891          0.9394160810786395 1.0000   
         C         C         1.0       0.20040904905080204           0.17786295988818243          0.9888926145069    1.0000   
         H         H         1.0       0.2099866383810656  0.19838306759313798           0.9254846964273545 1.0000   
         H         H         1.0       0.18876961068218892           0.169274666651022  0.9222533385558738 1.0000   
         H         H         1.0       0.215408631401114   0.1820082391892555  0.005499083676287221         1.0000   
         H         H         1.0       0.18945230113876918           0.16000878813410005          0.9947665345243617 1.0000   
         C         C         1.0       0.21122067742300002           0.18624661103665552          0.49903781130695035          1.0000   
         C         C         1.0       0.21258745902005363           0.18484370697287633          0.45094761417296175          1.0000   
         H         H         1.0       0.20248317249720155           0.1693812835692083 0.5128381667354441 1.0000   
         H         H         1.0       0.22773445427028052           0.19315011086479497          0.5130490086876616 1.0000   
         H         H         1.0       0.21434673698722562           0.19946571926614334          0.43531251335785703          1.0000   
         H         H         1.0       0.19572034324083376           0.17319983552592608          0.44025420605085813          1.0000   
         C         C         1.0       0.25385235155099045           0.11557989105428605          0.6881097665774507 1.0000   
         C         C         1.0       0.26958381698766287           0.13982392852248984          0.7013885012784373 1.0000   
         H         H         1.0       0.23826282885769853           0.1141602761104285 0.6898512788066418 1.0000   
         H         H         1.0       0.255042081108415   0.10433729400469677           0.7090106829521807 1.0000   
         H         H         1.0       0.28644188198624    0.14451219905424995           0.6926440238188689 1.0000   
         H         H         1.0       0.26665542551338295           0.15196862711851586          0.6845351288917272 1.0000   
         C         C         1.0       0.24997633414137263           0.11957826440891069          0.2182587613439618 1.0000   
         C         C         1.0       0.2572518322399719  0.1358061674758284  0.18083242497530674          1.0000   
         H         H         1.0       0.2326306737025675  0.11084846368798013           0.2167242393507068 1.0000   
         H         H         1.0       0.2546848223356267  0.10691813399342136           0.21387714059204174          1.0000   
         H         H         1.0       0.27406226811611656           0.15229729019031488          0.18496606330798046          1.0000   
         H         H         1.0       0.24448098791138792           0.139863489822305  0.18110514619524987          1.0000   
         C         C         1.0       0.3719351671802348  0.11388394525081487           0.52092863470086   1.0000   
         C         C         1.0       0.3648275836838374  0.1269623474607615  0.4913581094159276 1.0000   
         H         H         1.0       0.3606470127259949  0.10440634345198291           0.5463882208050567 1.0000   
         H         H         1.0       0.37506388266217855           0.10331175727978513          0.5023192359153715 1.0000   
         H         H         1.0       0.3681369701397096  0.12391593466253636           0.45814897520820785          1.0000   
         H         H         1.0       0.37599850813837016           0.14443671100387132          0.49189624725236103          1.0000   
         C         C         1.0       0.36231641025533423           0.22347206336786848          0.7882764461178303 1.0000   
         C         C         1.0       0.363438587655678   0.22821252887286583           0.8364295490824025 1.0000   
         H         H         1.0       0.3557641842408389  0.23339878130676692           0.7731493411345924 1.0000   
         H         H         1.0       0.35028787109691123           0.20728854186091739          0.7802194438658132 1.0000   
         H         H         1.0       0.3703353032406479  0.24549739277997074           0.8466317071458879 1.0000   
         H         H         1.0       0.3763507758753675  0.22479869261048827           0.8480136038296988 1.0000   
         C         C         1.0       0.466147469259813   0.2338109029247271  0.8999173305449898 1.0000   
         C         C         1.0       0.48467667635194045           0.24871531560123916          0.9285507272414191 1.0000   
         H         H         1.0       0.4607155040805105  0.21585032477754837           0.9053772975065274 1.0000   
         H         H         1.0       0.4516553114871623  0.23410053942284498           0.9140056382763764 1.0000   
         H         H         1.0       0.48394483393716525           0.2638638483354728 0.9297364945941688 1.0000   
         H         H         1.0       0.49975964134692896           0.25195184028971634          0.9148165196726294 1.0000   
         C         C         1.0       0.48570426247063675           0.240847862365565  0.40234076410846603          1.0000   
         C         C         1.0       0.4794929614429389  0.2509740893673198  0.4410419856543909 1.0000   
         H         H         1.0       0.4782579747181485  0.22249076208704352           0.41020677936320643          1.0000   
         H         H         1.0       0.5039067969279771  0.24824148005895613           0.4032486758338297 1.0000   
         H         H         1.0       0.492397280435752   0.2674949950320259  0.44804065566775375          1.0000   
         H         H         1.0       0.4645385388236952  0.2507257520296271  0.4313539597774864 1.0000   
         C         C         1.0       0.3760777882891505  0.1273286238073499  0.03893539547008423          1.0000   
         C         C         1.0       0.3658358337317942  0.12980954472716777           0.9954642750614372 1.0000   
         H         H         1.0       0.3802216669652472  0.11423793511462496           0.04000452820294238          1.0000   
         H         H         1.0       0.36257449292913146           0.12271517829604395          0.0606836796674094 1.0000   
         H         H         1.0       0.37634226099460555           0.14657155449896303          0.9866191038102486 1.0000   
         H         H         1.0       0.36921904489703167           0.12118907042204691          0.9701143656358041 1.0000   
         C         C         1.0       0.3674820849518369  0.2340986387994664  0.28224681171976046          1.0000   
         C         C         1.0       0.3657543131675284  0.23964899741708798           0.33004173101087575          1.0000   
         H         H         1.0       0.36091368546649677           0.24134582236089083          0.258367512566282  1.0000   
         H         H         1.0       0.3578682016509565  0.21737793769904418           0.2733646775628146 1.0000   
         H         H         1.0       0.3787132028094983  0.24188888761487976           0.35212180385435643          1.0000   
         H         H         1.0       0.36587152441232607           0.2551021010585128 0.3335756925948523 1.0000   
         C         C         1.0       0.009726609737237213          0.18516143448626493          0.9739645090720116 1.0000   
         C         C         1.0       0.014298315765347316          0.1745971920257538 0.9351587507040627 1.0000   
         H         H         1.0       0.01598388206751171           0.20321089285937327          0.9695763123387827 1.0000   
         H         H         1.0       0.021460275005414614          0.1876147201263012 5.306339634390459e-05        1.0000   
         H         H         1.0       0.0021519854862318785         0.17031708033656145          0.9088071473326897 1.0000   
         H         H         1.0       0.009990941836444433          0.1580407376373733 0.9448205620506808 1.0000   
         C         C         1.0       0.009051070563155425          0.16342609740129704          0.49763468327917726          1.0000   
         C         C         1.0       0.014251064409517952          0.16807669388892116          0.4516927792154593 1.0000   
         H         H         1.0       0.019397606282323558          0.17907333565683536          0.5155577962845448 1.0000   
         H         H         1.0       0.014747551821414143          0.1527893884311576 0.5070197876518856 1.0000   
         H         H         1.0       0.005884205969129142          0.17511965531931856          0.43496432336780844          1.0000   
         H         H         1.0       0.006791527076934753          0.1519854857822876 0.43502946024117206          1.0000   
         C         C         1.0       0.9018814364118194  0.1013510506656046  0.7078543564547168 1.0000   
         C         C         1.0       0.8836354938571072  0.10371291323186839           0.7221202643096358 1.0000   
         H         H         1.0       0.8981072889246768  0.08425139821140419           0.7117386081065642 1.0000   
         H         H         1.0       0.9171747388168888  0.11033157554714809           0.7284010391044734 1.0000   
         H         H         1.0       0.8869480714126472  0.11987322031287363           0.7159668863988776 1.0000   
         H         H         1.0       0.8697672005721898  0.09320548117331881           0.7010394323508307 1.0000   
         C         C         1.0       0.8816973077869064  0.08960164056901058           0.18591059647666128          1.0000   
         C         C         1.0       0.8976619859537619  0.09551508974226493           0.2221952184793204 1.0000   
         H         H         1.0       0.8690577130873176  0.09294926426994744           0.19566824141258693          1.0000   
         H         H         1.0       0.8734279801374565  0.07056652609286146           0.18274744769544404          1.0000   
         H         H         1.0       0.9095050063461319  0.11385783496140088           0.2204779217219371 1.0000   
         H         H         1.0       0.9100628196395688  0.09019871690056235           0.21690219948584824          1.0000   
         C         C         1.0       0.8875083248637317  0.2109442114198137  0.5687865455713547 1.0000   
         C         C         1.0       0.8894857390309657  0.20062252005128692           0.524767848145156  1.0000   
         H         H         1.0       0.9034903812160291  0.22559610295177612           0.5743015005923483 1.0000   
         H         H         1.0       0.8861976970392343  0.19998975542720174           0.5949691517750336 1.0000   
         H         H         1.0       0.9016453448819567  0.21495499706518498           0.5058542550214599 1.0000   
         H         H         1.0       0.8757620647712493  0.19475398042533748           0.505122353311979  1.0000   
         C         C         1.0       0.7947415513964344  0.11879992053516104           0.7928443618395922 1.0000   
         C         C         1.0       0.7976973562818327  0.12256480394633926           0.8423232919714658 1.0000   
         H         H         1.0       0.7811269556887257  0.10237988907506834           0.7847303703653167 1.0000   
         H         H         1.0       0.8091398646952455  0.11954633990580811           0.7765704155037593 1.0000   
         H         H         1.0       0.7812287238306654  0.11533890383861585           0.856534436802246  1.0000   
         H         H         1.0       0.8063867251897903  0.14056152389594953           0.8501715914140168 1.0000   
         C         C         1.0       0.7926186697583485  0.20671658241112034           0.9289360944475074 1.0000   
         C         C         1.0       0.7893255200408534  0.22259851945896372           0.9044529869796784 1.0000   
         H         H         1.0       0.778307086394032   0.1893242270603099  0.9297301753890626 1.0000   
         H         H         1.0       0.8043528167099212  0.20291696443495374           0.9146959640962041 1.0000   
         H         H         1.0       0.8042550787899605  0.23924438534121042           0.9050781785654259 1.0000   
         H         H         1.0       0.7779446947091305  0.22632281967275114           0.9211929187372523 1.0000   
         C         C         1.0       0.7626532219602948  0.20489904147234858           0.3901090702383628 1.0000   
         C         C         1.0       0.762422277134937   0.19094087493074502           0.42768825137197786          1.0000   
         H         H         1.0       0.7755449568561621  0.22309511569856708           0.3898969263524227 1.0000   
         H         H         1.0       0.7467267403341767  0.20573912591611254           0.39111338436856224          1.0000   
         H         H         1.0       0.7466777771990767  0.18204413542712866           0.44316439614758185          1.0000   
         H         H         1.0       0.7642546085026651  0.17713696951098906           0.41396398424656683          1.0000   
         C         C         1.0       0.9073933802428518  0.2245279916821603  0.13335957323786504          1.0000   
         C         C         1.0       0.9241420416207974  0.22856824087771696           0.09653947155558346          1.0000   
         H         H         1.0       0.9185671782883467  0.2368392198178107  0.15715653631732607          1.0000   
         H         H         1.0       0.900800731924188   0.20801187806673413           0.14988097201744574          1.0000   
         H         H         1.0       0.9410447232683445  0.23763191095273534           0.10970365531604023          1.0000   
         H         H         1.0       0.922803590771997   0.23933630929469332           0.07118305741775043          1.0000   
         C         C         1.0       0.7940098805800739  0.10488382354868629           0.28609833330129664          1.0000   
         C         C         1.0       0.797220752163112   0.10826988048833017           0.33414770151763595          1.0000   
         H         H         1.0       0.78129944552292    0.0884688601824279  0.28062564094252684          1.0000   
         H         H         1.0       0.8088933324903282  0.10564547892128305           0.27148379262918126          1.0000   
         H         H         1.0       0.8053232074488433  0.12632119978100004           0.3359150915760901 1.0000   
         H         H         1.0       0.7809424633643581  0.10183970973677774           0.350121851531307  1.0000   
         C         C         1.0       0.15736718155056084           0.4748265957200624 0.8066690462343328 1.0000   
         C         C         1.0       0.14829928711211623           0.4812899498667665 0.8465748511565128 1.0000   
         H         H         1.0       0.16740754463487842           0.48911218968867437          0.7867327768587159 1.0000   
         H         H         1.0       0.1430351114621533  0.4646415501992141  0.7868863129366241 1.0000   
         H         H         1.0       0.1615723099734947  0.49227036698087534           0.8675511209874984 1.0000   
         H         H         1.0       0.13807034020650072           0.46631240508141186          0.8690903985246222 1.0000   
         C         C         1.0       0.13386588498321428           0.44927112725513885          0.3508685089695964 1.0000   
         C         C         1.0       0.14404009750572017           0.46883060536523086          0.32106722821246036          1.0000   
         H         H         1.0       0.11771071312346226           0.4368322001782364 0.33989854418633697          1.0000   
         H         H         1.0       0.12811054329361624           0.4537506648643567 0.38089726523338635          1.0000   
         H         H         1.0       0.16033844379219603           0.47822598464751803          0.33283321081113415          1.0000   
         H         H         1.0       0.14820579717241913           0.46458455844763047          0.2887948188803705 1.0000   
         C         C         1.0       0.11043048414707185           0.5633821331198509 0.640281628922974  1.0000   
         C         C         1.0       0.1290994203874373  0.5683273927329696  0.6085609880870305 1.0000   
         H         H         1.0       0.11084551440851395           0.5785275550317257 0.6501290841352368 1.0000   
         H         H         1.0       0.09517119160240879           0.5544060393011544 0.6224452138520511 1.0000   
         H         H         1.0       0.1325989996758447  0.5552348644301186  0.6044217732323726 1.0000   
         H         H         1.0       0.1453366257188228  0.5821762951443031  0.6175443775927527 1.0000   
         C         C         1.0       0.12186335028212976           0.5560768008584203 0.12604325244644685          1.0000   
         C         C         1.0       0.10111748408383743           0.5569819297790634 0.12040032676450173          1.0000   
         H         H         1.0       0.1364062271049896  0.5728764445609091  0.12130572110300648          1.0000   
         H         H         1.0       0.12285183082009841           0.545524528075114  0.102583868800408  1.0000   
         H         H         1.0       0.10180422685138121           0.5702521718784921 0.1418206314438682 1.0000   
         H         H         1.0       0.08579049789572579           0.5412527335927815 0.12877500537429973          1.0000   
         C         C         1.0       0.8547454110049145  0.3270746940567919  0.5983828133867964 1.0000   
         C         C         1.0       0.8582798033218838  0.32826006334261393           0.6470106556382333 1.0000   
         H         H         1.0       0.8692503518650401  0.33799811176128486           0.5796334835116833 1.0000   
         H         H         1.0       0.8419791040304531  0.3318222070736334  0.5927289180374959 1.0000   
         H         H         1.0       0.8687772781103384  0.32210229714009997           0.6560799499360627 1.0000   
         H         H         1.0       0.8422738580701834  0.3193303599987366  0.6645225660194776 1.0000   
         C         C         1.0       0.9904884192389373  0.43874800819862114           0.7823361566669172 1.0000   
         C         C         1.0       0.9983873889340151  0.4583919447190108  0.8154159287869821 1.0000   
         H         H         1.0       0.0006694375449765033         0.44350406988751556          0.7551505377134665 1.0000   
         H         H         1.0       0.9922197167745304  0.4264496423706581  0.7979532867805514 1.0000   
         H         H         1.0       0.9937033242770337  0.4528626231089829  0.8477741230831384 1.0000   
         H         H         1.0       0.9891933604531122  0.46593982471955436           0.8061466489344549 1.0000   
         C         C         1.0       0.012790733517931727          0.5464131487308992 0.4816070586456871 1.0000   
         C         C         1.0       0.008458384052634438          0.5342998719971633 0.5235825023819686 1.0000   
         H         H         1.0       0.009455940559361942          0.5595410519216997 0.4887027753581716 1.0000   
         H         H         1.0       0.0009684405298708842         0.5352576899326078 0.45873725974916496          1.0000   
         H         H         1.0       0.016056123647055942          0.5469544292990582 0.5481414127608105 1.0000   
         H         H         1.0       0.018577988453579622          0.5270977857197751 0.5289083181463179 1.0000   
         C         C         1.0       0.8536406348530471  0.3310397933264264  0.16521034241502655          1.0000   
         C         C         1.0       0.8506232035563276  0.32720589707239844           0.11722562107878957          1.0000   
         H         H         1.0       0.8628282155439171  0.323296320701169   0.17819336749422224          1.0000   
         H         H         1.0       0.8379922103728175  0.32254800521238935           0.18254323250398508          1.0000   
         H         H         1.0       0.8658445661795473  0.3377843683448228  0.09615232130941403          1.0000   
         H         H         1.0       0.8386824913471955  0.3312308208702624  0.10517607519387509          1.0000   
         C         C         1.0       0.8856076564178517  0.4334723435413759  0.9078821904106961 1.0000   
         C         C         1.0       0.8676643343975621  0.4306974922195773  0.8792477351504927 1.0000   
         H         H         1.0       0.8849966857742482  0.41819524134218933           0.9076680206017794 1.0000   
         H         H         1.0       0.9024018138994319  0.44550733149543253           0.8929005953167565 1.0000   
         H         H         1.0       0.8656359577595392  0.44519723826551233           0.8782622651166998 1.0000   
         H         H         1.0       0.8518005358692217  0.4169919008203855  0.8864304258258153 1.0000   
         C         C         1.0       0.9021796860120461  0.4575049487029109  0.4024586179556592 1.0000   
         C         C         1.0       0.8821024151683563  0.4524179381120444  0.3758152195643305 1.0000   
         H         H         1.0       0.9185964512119588  0.4721209708407006  0.38760851486760833          1.0000   
         H         H         1.0       0.9073295143543312  0.4445305325760504  0.39575802415564043          1.0000   
         H         H         1.0       0.8816884000889952  0.4681454051449215  0.3738650648788998 1.0000   
         H         H         1.0       0.8679513299100756  0.4405763773548542  0.3948033988187208 1.0000   
         C         C         1.0       0.9925755262486831  0.4448747715791329  0.27280245739465253          1.0000   
         C         C         1.0       0.0028052394854334306         0.46739729242864814          0.2971631971327216 1.0000   
         H         H         1.0       0.9914002899190199  0.432124600550346   0.29523577055163164          1.0000   
         H         H         1.0       0.0034200347611430537         0.44686551410205577          0.24435789984555192          1.0000   
         H         H         1.0       0.9966578580094803  0.4646891728714371  0.330867715227568  1.0000   
         H         H         1.0       0.9973758984352227  0.4783886765306552  0.28306411408431503          1.0000   
         C         C         1.0       0.0016318402052362124         0.5596417145946683 0.9831524961337479 1.0000   
         C         C         1.0       0.9954792193417563  0.5509656416657944  0.029219640742779163         1.0000   
         H         H         1.0       0.0029883802024546213         0.5760975938897012 0.9860849106031424 1.0000   
         H         H         1.0       0.9888957625427961  0.5496859594394417  0.9580409638772368 1.0000   
         H         H         1.0       0.9973318599149855  0.5636963065686784  0.05126315468872689          1.0000   
         H         H         1.0       0.007689313770047699          0.5454069125807572 0.03827259761481518          1.0000   
         C         C         1.0       0.9101884659590828  0.7877735876611438  0.715135822240175  1.0000   
         C         C         1.0       0.895228485619933   0.7820465863920688  0.7519230627413308 1.0000   
         H         H         1.0       0.9248364293828981  0.8045478960133953  0.7138401357394247 1.0000   
         H         H         1.0       0.919105327019793   0.7782706069235211  0.7140010722492067 1.0000   
         H         H         1.0       0.8816950580567361  0.7653976588030231  0.7452489793678195 1.0000   
         H         H         1.0       0.8888664452837741  0.7936098376434277  0.7597359474691681 1.0000   
         C         C         1.0       0.9236725162555589  0.797835713466239   0.22533815571225155          1.0000   
         C         C         1.0       0.9238684603465299  0.7773557246972711  0.23949588129117244          1.0000   
         H         H         1.0       0.9403791036872021  0.811172551950609   0.21937623398526382          1.0000   
         H         H         1.0       0.9163702243728284  0.8037348400608196  0.25069105812746373          1.0000   
         H         H         1.0       0.91338318458245    0.7632249328954464  0.22168097733855555          1.0000   
         H         H         1.0       0.9395666744986445  0.780778122344492   0.22828365872011677          1.0000   
         C         C         1.0       0.8740451782090848  0.539845139594147   0.6556292849549038 1.0000   
         C         C         1.0       0.8774794769187112  0.5226488109299301  0.6784512734136596 1.0000   
         H         H         1.0       0.8633972942101321  0.5335190475625589  0.6287941324267912 1.0000   
         H         H         1.0       0.8902617403459134  0.5537486234730999  0.642772457985687  1.0000   
         H         H         1.0       0.861636403005289   0.5112795404183758  0.6938140849110872 1.0000   
         H         H         1.0       0.8892309021308471  0.5300524078612663  0.7060666305465156 1.0000   
         C         C         1.0       0.8040215937100177  0.675765442453122   0.6740471329850743 1.0000   
         C         C         1.0       0.7925525206286905  0.6851091206214248  0.6456705957302988 1.0000   
         H         H         1.0       0.8009898306972489  0.6762734555405606  0.7073472275610679 1.0000   
         H         H         1.0       0.8223433698853505  0.6874119038117551  0.675982679347443  1.0000   
         H         H         1.0       0.7822460302788324  0.688389194320551   0.6647368779165916 1.0000   
         H         H         1.0       0.7790449554444581  0.6708444289370121  0.6288881655369956 1.0000   
         C         C         1.0       0.9073733504522425  0.6790041376648269  0.8142171410600572 1.0000   
         C         C         1.0       0.9037066310106653  0.6813390242250821  0.862522405658086  1.0000   
         H         H         1.0       0.9241492025156959  0.6841034223825899  0.8072728211744802 1.0000   
         H         H         1.0       0.9023382547285157  0.6897191058072932  0.7983042178128156 1.0000   
         H         H         1.0       0.9130057021499534  0.6749680016030339  0.8807832926150756 1.0000   
         H         H         1.0       0.8862213085740392  0.671977234487827   0.8723497954779599 1.0000   
         C         C         1.0       0.8528709265414315  0.5094724070473571  0.20098804188382777          1.0000   
         C         C         1.0       0.8498254446817172  0.5045590570683904  0.15262887118702723          1.0000   
         H         H         1.0       0.843891096398184   0.4937836715501471  0.21576204124511586          1.0000   
         H         H         1.0       0.8696775455584976  0.514209260855439   0.21120246614508278          1.0000   
         H         H         1.0       0.8521669064147804  0.5193313810794409  0.1349971639257863 1.0000   
         H         H         1.0       0.8314447076319759  0.49244710097424    0.1470654497130624 1.0000   
         C         C         1.0       0.8144312329733094  0.5577238320432972  0.93375278626598   1.0000   
         C         C         1.0       0.7910863552578931  0.5402919997482584  0.9432042175150789 1.0000   
         H         H         1.0       0.8251258353541385  0.551985660698868   0.9500440923459923 1.0000   
         H         H         1.0       0.8181681859835688  0.5735073663639766  0.9485587219116104 1.0000   
         H         H         1.0       0.7793011280050582  0.5412827062860728  0.918852850726627  1.0000   
         H         H         1.0       0.790087152493949   0.52402791249466    0.9381478783129095 1.0000   
         C         C         1.0       0.7916908453143595  0.5631357188639478  0.4293652814079257 1.0000   
         C         C         1.0       0.8092368558680924  0.5821970804456664  0.45639757382930296          1.0000   
         H         H         1.0       0.7775645753572787  0.5656582429852238  0.42868103263260765          1.0000   
         H         H         1.0       0.7858333604825466  0.546906954491303   0.4429085941039947 1.0000   
         H         H         1.0       0.8233575896500355  0.5808969952507297  0.45871734633276107          1.0000   
         H         H         1.0       0.8149081440613622  0.5983389247851997  0.44225564563872055          1.0000   
         C         C         1.0       0.8001593484851657  0.6634129245695524  0.09276940195339631          1.0000   
         C         C         1.0       0.815020476687773   0.6756772750802224  0.0556911031886094 1.0000   
         H         H         1.0       0.7870779567067598  0.6673987826814709  0.09140893801768105          1.0000   
         H         H         1.0       0.8087710293191895  0.6693263778712237  0.12274542528265925          1.0000   
         H         H         1.0       0.8068346245567977  0.6710666042321091  0.02608356313854765          1.0000   
         H         H         1.0       0.8272066132755068  0.6717727532041837  0.05451239554746634          1.0000   
         C         C         1.0       0.8956464245069594  0.6624573889801862  0.30213349445652693          1.0000   
         C         C         1.0       0.8920695973956145  0.6637516111515586  0.35107635252739644          1.0000   
         H         H         1.0       0.8935135738317002  0.6746155636222282  0.28370235983432146          1.0000   
         H         H         1.0       0.9117673884709278  0.6643869268249261  0.3002999496459283 1.0000   
         H         H         1.0       0.9023287827292327  0.6586696998286661  0.36656658466970476          1.0000   
         H         H         1.0       0.8740332656966937  0.6517308257916491  0.35800469668506074          1.0000   
         C         C         1.0       0.49770803408830233           0.3314281869960419 0.6330269300475231 1.0000   
         C         C         1.0       0.5059638163162141  0.3506029650250474  0.6664563597338021 1.0000   
         H         H         1.0       0.511833389684966   0.33258285912796487           0.6174989928941292 1.0000   
         H         H         1.0       0.48858958126229574           0.33425522555777337          0.6072731737831835 1.0000   
         H         H         1.0       0.5218703829490114  0.35270823587747097           0.6796763058541598 1.0000   
         H         H         1.0       0.4938678889339163  0.34623349290478245           0.6932183947793905 1.0000   
         C         C         1.0       0.679681108166445   0.5080942682468101  0.6726821056419323 1.0000   
         C         C         1.0       0.6875796522205184  0.5171442600068832  0.6276363579865953 1.0000   
         H         H         1.0       0.690878028587893   0.5176100631432659  0.6985992869042063 1.0000   
         H         H         1.0       0.681190612560133   0.4928228314203094  0.6737800064667393 1.0000   
         H         H         1.0       0.6829785390978911  0.5030189931383209  0.6041045659691554 1.0000   
         H         H         1.0       0.6801595760907521  0.5268928037967914  0.6166491557709821 1.0000   
         C         C         1.0       0.5169068868965819  0.3536143819582631  0.13015584515999504          1.0000   
         C         C         1.0       0.5156211342381315  0.3478882548442528  0.17767826333827735          1.0000   
         H         H         1.0       0.5013704208730586  0.34062030095263834           0.11479370606521934          1.0000   
         H         H         1.0       0.5306241721311458  0.35086881960482974           0.11540766740512161          1.0000   
         H         H         1.0       0.510195847123067   0.3580306464100435  0.19456521361489498          1.0000   
         H         H         1.0       0.5332430150459985  0.3549235443981804  0.19017991079838764          1.0000   
         C         C         1.0       0.677101758268458   0.5100366411706806  0.19034849090266862          1.0000   
         C         C         1.0       0.6790419090470885  0.5083547400953283  0.14238992607627077          1.0000   
         H         H         1.0       0.6879022590807676  0.5264826031145585  0.1999776579423192 1.0000   
         H         H         1.0       0.6814970271637772  0.5006281131007766  0.21305038757478506          1.0000   
         H         H         1.0       0.6741564838390381  0.49181190912663264           0.13410023486656283          1.0000   
         H         H         1.0       0.6661392979278693  0.5104936811116022  0.12605799617485797          1.0000   
         C         C         1.0       0.5572781753480116  0.4616267220463871  0.8984699590849093 1.0000   
         C         C         1.0       0.5750247234424987  0.4580611236800109  0.8786422127960279 1.0000   
         H         H         1.0       0.5415042399475126  0.45151287905324766           0.8809670571385039 1.0000   
         H         H         1.0       0.5618449809702742  0.47839647543884034           0.889575621595005  1.0000   
         H         H         1.0       0.5912482055109461  0.4659426665972449  0.8967159852598603 1.0000   
         H         H         1.0       0.5701122792175293  0.44004824949222565           0.8763055681984584 1.0000   
         C         C         1.0       0.542821292990908   0.44562407034933166           0.40412557628740575          1.0000   
         C         C         1.0       0.5613092182071926  0.4429921852592135  0.38345579594335694          1.0000   
         H         H         1.0       0.5264303641703997  0.43320387559550105           0.3928752377680819 1.0000   
         H         H         1.0       0.5433957615234939  0.4603217131230472  0.3951100781617436 1.0000   
         H         H         1.0       0.556004021231921   0.4252174375622892  0.3779909172853438 1.0000   
         H         H         1.0       0.577039838549783   0.44825889446277134           0.40499098371895764          1.0000   
         C         C         1.0       0.3380099545555797  0.4603834902705127  0.8092277777476501 1.0000   
         C         C         1.0       0.3592368467835639  0.4740891578256291  0.7850719568097986 1.0000   
         H         H         1.0       0.34125311591950985           0.44896015458461075          0.8284105186459931 1.0000   
         H         H         1.0       0.33804883063490265           0.47156638625991587          0.8338243899144215 1.0000   
         H         H         1.0       0.35871827996341704           0.48805815887820375          0.7698531760995987 1.0000   
         H         H         1.0       0.35995479190010826           0.46526098651364917          0.7550052458667583 1.0000   
         C         C         1.0       0.4579689416764711  0.44563519384299616           0.9675962882372586 1.0000   
         C         C         1.0       0.45453759448981174           0.4434370333267553 0.01674793867264146          1.0000   
         H         H         1.0       0.4489976651875092  0.4300541006313307  0.9509367097902645 1.0000   
         H         H         1.0       0.47471847471711226           0.44881677547833065          0.9578556283851825 1.0000   
         H         H         1.0       0.43828232283518664           0.4290778671591259 0.024539182648201898         1.0000   
         H         H         1.0       0.45496955372540177           0.4579798697337011 0.030319687792378886         1.0000   
         C         C         1.0       0.5845309816041057  0.5876867438385043  0.7070837415323562 1.0000   
         C         C         1.0       0.5852659661315264  0.5721387203118754  0.6739268868526054 1.0000   
         H         H         1.0       0.5934514699643776  0.6041721996064459  0.6938900805908762 1.0000   
         H         H         1.0       0.5925838864103444  0.5866782776989404  0.7356262750800919 1.0000   
         H         H         1.0       0.5711285426970557  0.5668281235774715  0.6528476881979728 1.0000   
         H         H         1.0       0.600645837603306   0.5827051806876881  0.6584325291386732 1.0000   
         C         C         1.0       0.3385416738067727  0.465337343589947   0.3517206800161872 1.0000   
         C         C         1.0       0.33540678576431676           0.4613135010621952 0.30435730160414226          1.0000   
         H         H         1.0       0.3315230196082253  0.4498541676993876  0.3701118968703208 1.0000   
         H         H         1.0       0.3290199038361791  0.473482496883978   0.36097811564079596          1.0000   
         H         H         1.0       0.34294909478299523           0.4774765799778478 0.28841311963000754          1.0000   
         H         H         1.0       0.3440617868893707  0.45355318252019833           0.2926776397578089 1.0000   
         C         C         1.0       0.4408718481184404  0.552999358666046   0.5834013783207023 1.0000   
         C         C         1.0       0.43730040170484014           0.5349677390403661 0.6155879936937787 1.0000   
         H         H         1.0       0.45758090456891676           0.56605834061357   0.588499878718002  1.0000   
         H         H         1.0       0.43135493132454084           0.5613031420033093 0.59062926998357   1.0000   
         H         H         1.0       0.4196529765148852  0.5260649521657348  0.6222652901033776 1.0000   
         H         H         1.0       0.43900295758141705           0.522471805941754  0.5966114663044662 1.0000   
         C         C         1.0       0.44397392138547254           0.5457491566045893 0.05918080385087925          1.0000   
         C         C         1.0       0.4439666807406338  0.5292343754733555  0.09048444158830957          1.0000   
         H         H         1.0       0.4318602258611413  0.55068283356283    0.067726759599886  1.0000   
         H         H         1.0       0.45919592203928666           0.5620085798311002 0.06004455517487025          1.0000   
         H         H         1.0       0.45486353733357726           0.5234409617203084 0.07980546659279308          1.0000   
         H         H         1.0       0.42806519910264434           0.5136380912164619 0.08909592646161063          1.0000   
         C         C         1.0       0.46020321649727874           0.4589929938820464 0.49394317650046254          1.0000   
         C         C         1.0       0.4575180744421804  0.4551658059590864  0.5411122541749497 1.0000   
         H         H         1.0       0.4533230441158026  0.444285375862795   0.4752204444476358 1.0000   
         H         H         1.0       0.47782242600137903           0.46809338662151784          0.4855863416610571 1.0000   
         H         H         1.0       0.440544341422361   0.4420636559227835  0.5500381528576366 1.0000   
         H         H         1.0       0.4581841812009209  0.46991752841999407           0.5557718011983429 1.0000   
         C         C         1.0       0.5677837529894438  0.5742062707257586  0.2819006408021629 1.0000   
         C         C         1.0       0.5794252646518828  0.5695364784166737  0.2421284887480463 1.0000   
         H         H         1.0       0.5775302102919497  0.5921616951896883  0.2843914253285411 1.0000   
         H         H         1.0       0.5724802629564867  0.5708475043540441  0.3111559147376918 1.0000   
         H         H         1.0       0.5976127399195201  0.5835590078078271  0.244100470911742  1.0000   
         H         H         1.0       0.5733511136349447  0.5718852375276401  0.21356710205281487          1.0000   
         C         C         1.0       0.8256341265707595  0.8203143968031397  0.44988151589170283          1.0000   
         C         C         1.0       0.81989895127932    0.809227456529669   0.4936477842997994 1.0000   
         H         H         1.0       0.8421937942679312  0.8353935861169436  0.4506752405825157 1.0000   
         H         H         1.0       0.8254963706003909  0.8080662232890907  0.4254699937271596 1.0000   
         H         H         1.0       0.801634278987668   0.7973907607324583  0.4913714900400619 1.0000   
         H         H         1.0       0.8213189762747026  0.8194102260579511  0.5201859487392437 1.0000   
         C         C         1.0       0.8227926375730277  0.9891496003551957  0.443172349272272  1.0000   
         C         C         1.0       0.8240945980480049  0.9843162433023592  0.49062000894937857          1.0000   
         H         H         1.0       0.8058850120352014  0.9790797095080781  0.43333486480091143          1.0000   
         H         H         1.0       0.8308480579609675  0.9813837827513898  0.42273346333158707          1.0000   
         H         H         1.0       0.8261604367727388  0.9982879055037154  0.5114555548111949 1.0000   
         H         H         1.0       0.8392374041648579  0.9853572699127946  0.4963720213586776 1.0000   
         C         C         1.0       0.8331962549986588  0.8260014538115359  0.9739451249923237 1.0000   
         C         C         1.0       0.8407476479282517  0.8326638682182248  0.020659439561509927         1.0000   
         H         H         1.0       0.8241932911716106  0.8074756138858548  0.9707620647392223 1.0000   
         H         H         1.0       0.8483313218596155  0.831771108499013   0.9530260849698207 1.0000   
         H         H         1.0       0.8287827208416649  0.8326892319118685  0.043592908915565325         1.0000   
         H         H         1.0       0.8545168264579469  0.8505888141529819  0.019821359037476973         1.0000   
         C         C         1.0       0.8178810051594761  0.9914136701087346  0.9709076343317372 1.0000   
         C         C         1.0       0.8264975831271573  0.013274729979854127         0.9954565749856877 1.0000   
         H         H         1.0       0.8322550893825458  0.990452441523795   0.9551748456810025 1.0000   
         H         H         1.0       0.809637105567207   0.9921055963708296  0.941802531631357  1.0000   
         H         H         1.0       0.8128481495676758  0.010883350551149196         0.015584101670204298         1.0000   
         H         H         1.0       0.8397766820724964  0.01582232097287606           0.017243543629228864         1.0000   
         C         C         1.0       0.7710886202296588  0.891257093906623   0.7403306997951692 1.0000   
         C         C         1.0       0.7933527545337972  0.9054055721576942  0.7592739273356873 1.0000   
         H         H         1.0       0.7597834083833342  0.8953802911579374  0.7545845866629619 1.0000   
         H         H         1.0       0.7640743561590627  0.8732903025489843  0.7485946857505491 1.0000   
         H         H         1.0       0.7962412815044227  0.9227995257635712  0.7620145063505692 1.0000   
         H         H         1.0       0.8071977483339192  0.908010188666996   0.7373608389573432 1.0000   
         C         C         1.0       0.7932912713720659  0.8947528572786968  0.23578054665133988          1.0000   
         C         C         1.0       0.7709701673214461  0.8846280466101362  0.2566000045536535 1.0000   
         H         H         1.0       0.799685836145119   0.8833857421986904  0.240449058431302  1.0000   
         H         H         1.0       0.8055165570101496  0.9103814395613503  0.253368354491523  1.0000   
         H         H         1.0       0.7643865636416178  0.8962970559627363  0.26083006079033155          1.0000   
         H         H         1.0       0.7591508519845058  0.8708416207485447  0.23741065275089268          1.0000   
         C         C         1.0       0.5273785559996895  0.6687993480563293  0.8388926749345265 1.0000   
         C         C         1.0       0.5387257769525093  0.6643139496506157  0.8008875831933456 1.0000   
         H         H         1.0       0.5273763635654986  0.6590857084333123  0.8665612989857939 1.0000   
         H         H         1.0       0.5105259297883056  0.6630249781484567  0.8310299135991597 1.0000   
         H         H         1.0       0.5379586932633864  0.6740312189420524  0.7740368839944457 1.0000   
         H         H         1.0       0.5566517559415267  0.6712496137025883  0.805538079817372  1.0000   
         C         C         1.0       0.6666506572689433  0.8871366602022479  0.6038357134982512 1.0000   
         C         C         1.0       0.6656640697473913  0.887722681311021   0.6517137643070064 1.0000   
         H         H         1.0       0.6539271352911112  0.871910958299634   0.5894729499248094 1.0000   
         H         H         1.0       0.6641545054659801  0.9004602684259347  0.5909759785320908 1.0000   
         H         H         1.0       0.6682687347180858  0.9033070273484487  0.662006670545943  1.0000   
         H         H         1.0       0.6787319308741029  0.8853021953945777  0.664826299485982  1.0000   
         C         C         1.0       0.6773839077072811  0.7882529188700139  0.8344896038923683 1.0000   
         C         C         1.0       0.6877959037702073  0.7849561205739669  0.8728658769647839 1.0000   
         H         H         1.0       0.6782621102780388  0.778369109017884   0.8090886426017593 1.0000   
         H         H         1.0       0.6856352752417658  0.8049777031169199  0.8240913061364274 1.0000   
         H         H         1.0       0.6879463152865151  0.7693079789548305  0.8646837882438262 1.0000   
         H         H         1.0       0.6774477400121393  0.7810318208529868  0.9005310510671836 1.0000   
         C         C         1.0       0.5231400210678552  0.6580835212503305  0.3121125089406317 1.0000   
         C         C         1.0       0.5073390149345965  0.6537755113870922  0.2727148110745678 1.0000   
         H         H         1.0       0.5333340005452294  0.6509679688202901  0.3046932812606492 1.0000   
         H         H         1.0       0.5124397084855644  0.6493270634387607  0.3411454995403529 1.0000   
         H         H         1.0       0.5185174173424776  0.6659679097826283  0.24791006061661217          1.0000   
         H         H         1.0       0.4964569400354349  0.6603830830671023  0.2817363363163758 1.0000   
         C         C         1.0       0.5486092069728871  0.7706621700890767  0.5481928908673798 1.0000   
         C         C         1.0       0.5557129381204142  0.7859829232071917  0.5092545258692937 1.0000   
         H         H         1.0       0.555664561315041   0.7597847870855433  0.5477496277787898 1.0000   
         H         H         1.0       0.5303328903684138  0.7582808700956528  0.5494862210765543 1.0000   
         H         H         1.0       0.5681748821167647  0.8041222521607506  0.5170036372080788 1.0000   
         H         H         1.0       0.5405975977185191  0.7859858553824446  0.5003991295410333 1.0000   
         C         C         1.0       0.5860933715202171  0.8035484896991761  0.05138890525082151          1.0000   
         C         C         1.0       0.5647487633390673  0.7859359011835758  0.026244014084460393         1.0000   
         H         H         1.0       0.5925434658606847  0.820704920238289   0.03929496997305442          1.0000   
         H         H         1.0       0.5989205201644121  0.797815432040833   0.04526462665759575          1.0000   
         H         H         1.0       0.5568537963552204  0.7696425975867902  0.04405370138873851          1.0000   
         H         H         1.0       0.5521588876321646  0.791199043974746   0.026490549384201215         1.0000   
         C         C         1.0       0.6812094319116853  0.8801241218710354  0.1865309229767835 1.0000   
         C         C         1.0       0.6803947396925359  0.8820388635293627  0.13628595470262797          1.0000   
         H         H         1.0       0.6900178570447982  0.898173161194354   0.19911832688789205          1.0000   
         H         H         1.0       0.6916165385051227  0.8739591264583944  0.19271184249478024          1.0000   
         H         H         1.0       0.6760676760100575  0.8948033452120251  0.1305490635300638 1.0000   
         H         H         1.0       0.6671746254358593  0.8666158457901127  0.1205974093084735 1.0000   
         C         C         1.0       0.6586979191024354  0.7502689509085786  0.4028630320030598 1.0000   
         C         C         1.0       0.6689552790901603  0.7666021309196855  0.44004487015522736          1.0000   
         H         H         1.0       0.6548030172079943  0.7335937814750573  0.40846596129503526          1.0000   
         H         H         1.0       0.6700077084428413  0.7541241369043417  0.37691737915626   1.0000   
         H         H         1.0       0.6689466878200637  0.7588330851608645  0.46901234095931676          1.0000   
         H         H         1.0       0.657466641134356   0.7725890907227764  0.4482554987137418 1.0000   
         C         C         1.0       0.5017403128281006  0.14802271453162089           0.651536537814385  1.0000   
         C         C         1.0       0.5138579551645654  0.15986053682366638           0.6933170755594142 1.0000   
         H         H         1.0       0.4897818635405308  0.1310578973811434  0.6616932310459526 1.0000   
         H         H         1.0       0.5129725460018927  0.14811162260646393           0.6284469463273261 1.0000   
         H         H         1.0       0.502917967253178   0.1597395400839268  0.7176947913689207 1.0000   
         H         H         1.0       0.5266743517792485  0.17767125269168307           0.6896339404329098 1.0000   
         C         C         1.0       0.6820956126865171  0.1457943717749402  0.6778754610326978 1.0000   
         C         C         1.0       0.6770243472916383  0.1442208269145573  0.6303819277920258 1.0000   
         H         H         1.0       0.6749921283645539  0.15422271107750035           0.6938847122346293 1.0000   
         H         H         1.0       0.6738799019116263  0.12927853358082117           0.6908942265503202 1.0000   
         H         H         1.0       0.6890629621822044  0.1418516895583877  0.613569941955482  1.0000   
         H         H         1.0       0.6800277725290034  0.16042880581528252           0.6186836532380146 1.0000   
         C         C         1.0       0.5084622871467375  0.15503798728577803           0.13137940332588652          1.0000   
         C         C         1.0       0.5132253359871867  0.1548342325505021  0.1785765828150408 1.0000   
         H         H         1.0       0.49832613522645053           0.13780846438850686          0.11960476878399688          1.0000   
         H         H         1.0       0.5248068337085153  0.16386084331676168           0.11373207260795436          1.0000   
         H         H         1.0       0.5252781723254898  0.17174588400387547           0.19001447991304762          1.0000   
         H         H         1.0       0.4984751490009961  0.15195505835463868           0.1972432456557334 1.0000   
         C         C         1.0       0.6885161869003822  0.13673624574962365           0.12839103813994815          1.0000   
         C         C         1.0       0.6711332554302145  0.12356648139736635           0.159609900204285  1.0000   
         H         H         1.0       0.6867862269364342  0.1496034159675566  0.1136775326239312 1.0000   
         H         H         1.0       0.6861279011984825  0.12689000054952632           0.10015228228333531          1.0000   
         H         H         1.0       0.6723928462259798  0.13553014040464725           0.18533992554861656          1.0000   
         H         H         1.0       0.6765706490569221  0.11199549357508834           0.17386445701706443          1.0000   
         C         C         1.0       0.5875256119181178  0.09785900662932295           0.9020658524711552 1.0000   
         C         C         1.0       0.5836068170541441  0.1169553257649123  0.8919056782772945 1.0000   
         H         H         1.0       0.5757644302454842  0.08331385405314358           0.8823981646584881 1.0000   
         H         H         1.0       0.6042498533261478  0.10371412046410455           0.8912011381805055 1.0000   
         H         H         1.0       0.5996455339678421  0.13356829045624044           0.8944267529216184 1.0000   
         H         H         1.0       0.5725560675332148  0.12001049829998409           0.9128790426915145 1.0000   
         C         C         1.0       0.5540848488346902  0.09723483831790733           0.38714965522372763          1.0000   
         C         C         1.0       0.5609357409312205  0.08050990988293272           0.40158721970727224          1.0000   
         H         H         1.0       0.5409489678554574  0.09603479909001318           0.41061485967174266          1.0000   
         H         H         1.0       0.5689766240207809  0.11385199293679307           0.39293680177457807          1.0000   
         H         H         1.0       0.5760624089552427  0.08279188496906732           0.3828066782369556 1.0000   
         H         H         1.0       0.5495898685818728  0.06304338063626425           0.39522937231904876          1.0000   
         C         C         1.0       0.5141448860518671  0.8282580006991833  0.7994298309978846 1.0000   
         C         C         1.0       0.5141330867953363  0.8296954304021766  0.8475336311998226 1.0000   
         H         H         1.0       0.4976644279139107  0.8167726344613361  0.7855266855939664 1.0000   
         H         H         1.0       0.5161869384379182  0.8441519209999737  0.7917478531571135 1.0000   
         H         H         1.0       0.5305724186037271  0.8339743941671741  0.8607028219958168 1.0000   
         H         H         1.0       0.5041043424155847  0.8128918501425623  0.8599278759968714 1.0000   
         C         C         1.0       0.566803471652858   0.9824913013928874  0.9729066903479415 1.0000   
         C         C         1.0       0.564243389898857   0.9842557302163917  0.021388091016096206         1.0000   
         H         H         1.0       0.5834199564335228  0.9843537468916045  0.9650774295704792 1.0000   
         H         H         1.0       0.5664549885075321  0.9966149067985764  0.9597346264304069 1.0000   
         H         H         1.0       0.57185984015184    0.9769904436456514  0.04009129015837976          1.0000   
         H         H         1.0       0.5467135885715824  0.9748311006824282  0.027752437751704433         1.0000   
         C         C         1.0       0.46727231779418593           0.9916604096666137 0.774283027828155  1.0000   
         C         C         1.0       0.47387640920949053           0.0015890271332503758        0.7276760885440717 1.0000   
         H         H         1.0       0.453306098961864   0.9930395718374514  0.7861101740285762 1.0000   
         H         H         1.0       0.4816598369915533  0.001065770374124364         0.7964652293572351 1.0000   
         H         H         1.0       0.4842839596870781  0.9957354062099365  0.7146124568159251 1.0000   
         H         H         1.0       0.4592165015789711  0.9976662747538494  0.7075571941111422 1.0000   
         C         C         1.0       0.5336405556788953  0.8622016484589772  0.3049596323266891 1.0000   
         C         C         1.0       0.5322658899219328  0.8417778087952489  0.32453661511114423          1.0000   
         H         H         1.0       0.5291508732112141  0.8582898116985695  0.2706046183495273 1.0000   
         H         H         1.0       0.5512256598243956  0.8753758898629239  0.3057879450120355 1.0000   
         H         H         1.0       0.5159181336680007  0.8278122598382709  0.3235726698256484 1.0000   
         H         H         1.0       0.5358588309560935  0.8444913043407097  0.3594611068289265 1.0000   
         C         C         1.0       0.4585108547700135  0.8664223515796019  0.5799411280491238 1.0000   
         C         C         1.0       0.4688223611536545  0.8864553703854282  0.6068938192767941 1.0000   
         H         H         1.0       0.4404323977933372  0.8549327299795337  0.5862597408414709 1.0000   
         H         H         1.0       0.46486904679774804           0.8548902405437901 0.589440240363126  1.0000   
         H         H         1.0       0.4862194111473355  0.8919531126525272  0.6117880148065539 1.0000   
         H         H         1.0       0.46898109317508435           0.9014389029647589 0.5889886053761293 1.0000   
         C         C         1.0       0.46908299390941743           0.8896388973368691 0.0971477517181154 1.0000   
         C         C         1.0       0.45538082597630053           0.8673207423516672 0.1196443564360456 1.0000   
         H         H         1.0       0.4841743183373815  0.9020144754930774  0.11492095651520699          1.0000   
         H         H         1.0       0.4594184022507884  0.8978067981366665  0.10209870633456161          1.0000   
         H         H         1.0       0.4651603045244058  0.8597240069517185  0.12050790665894717          1.0000   
         H         H         1.0       0.4412378247667071  0.8561709051636841  0.09930572951204908          1.0000   
         C         C         1.0       0.5502857168662336  0.9882364408591022  0.486193240530555  1.0000   
         C         C         1.0       0.5551135615386279  0.9899170249698448  0.5327468910690275 1.0000   
         H         H         1.0       0.5639463481020419  0.995349708715623   0.4641758201003367 1.0000   
         H         H         1.0       0.5392418580789817  0.9956554905282555  0.4834642480866902 1.0000   
         H         H         1.0       0.5658211992408001  0.9837814888447683  0.5398759422880322 1.0000   
         H         H         1.0       0.539521475181301   0.9804822764486147  0.5500695873781489 1.0000   
         C         C         1.0       0.4380707363443882  0.9792046738395747  0.21609649814223764          1.0000   
         C         C         1.0       0.45187844448987174           0.991797288295537  0.17579039529379026          1.0000   
         H         H         1.0       0.44405223469172017           0.9905681308595111 0.2440656958656802 1.0000   
         H         H         1.0       0.4213169754830801  0.9766234989766669  0.21092392140422656          1.0000   
         H         H         1.0       0.43873678114795317           0.9895122733140782 0.1546474917403002 1.0000   
         H         H         1.0       0.45746457409632374           0.9821722264982672 0.15968468692167478          1.0000   
         C         C         1.0       0.018959610372304952          0.81144626774417   0.5012901371129703 1.0000   
         C         C         1.0       0.9976804472757843  0.7974251967651315  0.5224847025628704 1.0000   
         H         H         1.0       0.019325167410390254          0.8268477644397003 0.4926182680846233 1.0000   
         H         H         1.0       0.01818566292448498           0.8025251210215819 0.4696453641309044 1.0000   
         H         H         1.0       0.9946393709901499  0.8083112338205869  0.5425901874549283 1.0000   
         H         H         1.0       0.997976581974657   0.7849013353389421  0.5440927929229223 1.0000   
         C         C         1.0       0.20636123100954035           0.013525391787221225         0.4899633678485682 1.0000   
         C         C         1.0       0.19669768836150187           0.9962654993416147 0.5260662600360719 1.0000   
         H         H         1.0       0.1928190054430976  0.01304190871379064           0.46957753942238   1.0000   
         H         H         1.0       0.2126072780876496  0.0063838134066283025        0.4671643837252638 1.0000   
         H         H         1.0       0.18409455427362736           0.996996387320109  0.5448943263726502 1.0000   
         H         H         1.0       0.20933392207205706           0.9979872767723865 0.5469164616219335 1.0000   
         C         C         1.0       0.014856385627527752          0.8290621334168934 0.03412126795306337          1.0000   
         C         C         1.0       0.014234410183921454          0.8282992691408516 0.9858827333564456 1.0000   
         H         H         1.0       0.002866312304879978          0.8131234423806232 0.04870965169214078          1.0000   
         H         H         1.0       0.010395843275360713          0.8416817645751389 0.045500958823764356         1.0000   
         H         H         1.0       0.02364923275107902           0.8216033596991359 0.9715339483532888 1.0000   
         H         H         1.0       0.019782871934792303          0.845124213438669  0.9746954871629306 1.0000   
         C         C         1.0       0.2112774452288743  0.011379031411397397         0.0002546533864050999        1.0000   
         C         C         1.0       0.1977237456130422  0.004744663213067664         0.9597972241257187 1.0000   
         H         H         1.0       0.2225176888083555  0.0049235625642425965        0.9981293118896786 1.0000   
         H         H         1.0       0.20010283401082724           0.003632091685184035         0.028745200061181107         1.0000   
         H         H         1.0       0.20820004190080205           0.012942104868154846         0.9324345406665606 1.0000   
         H         H         1.0       0.18595349447778156           0.011300961061150201         0.9629045907082858 1.0000   
         C         C         1.0       0.11090589442119567           0.8950929176897724 0.785018692675076  1.0000   
         C         C         1.0       0.10506662472438771           0.8718823249494889 0.7722227073100528 1.0000   
         H         H         1.0       0.09595349437263899           0.8967510029889791 0.7874873480370826 1.0000   
         H         H         1.0       0.12132184648330743           0.9067338693675913 0.7602595290299233 1.0000   
         H         H         1.0       0.11359682674633485           0.8651240938849809 0.791402125091373  1.0000   
         H         H         1.0       0.0891983294369979  0.8610756414573711  0.78672898420848   1.0000   
         C         C         1.0       0.12222765786702988           0.8814002484305562 0.26647502948020135          1.0000   
         C         C         1.0       0.1080782088029456  0.8875935890201349  0.2949167404707476 1.0000   
         H         H         1.0       0.1407703160389419  0.8931135837302371  0.2739641414644451 1.0000   
         H         H         1.0       0.12094540180242257           0.8659874344556256 0.27701950787009005          1.0000   
         H         H         1.0       0.09186475997933395           0.8730526951110736 0.29845316731689686          1.0000   
         H         H         1.0       0.10599551749510017           0.9010873749694177 0.2811598815382027 1.0000   
         C         C         1.0       0.15107248038960444           0.6665806259461734 0.8327224510761603 1.0000   
         C         C         1.0       0.15062721225479686           0.665192214506363  0.8802502782042428 1.0000   
         H         H         1.0       0.13339935800436586           0.6576456549621233 0.8194623861517064 1.0000   
         H         H         1.0       0.15843159694938497           0.657742466340351  0.8168274613009221 1.0000   
         H         H         1.0       0.16623984161768485           0.6726903357223154 0.8996643511691147 1.0000   
         H         H         1.0       0.1421238920070294  0.673351529039858   0.8895990736767658 1.0000   
         C         C         1.0       0.34966678644296356           0.8331225603173122 0.8063841179781732 1.0000   
         C         C         1.0       0.3480999708699458  0.8367515046642378  0.853891135893999  1.0000   
         H         H         1.0       0.3381187555172725  0.8370663008849621  0.790325841437132  1.0000   
         H         H         1.0       0.3436296322502771  0.8152345135157163  0.8068113773825879 1.0000   
         H         H         1.0       0.35516432158502104           0.8284122120462585 0.8704164213959857 1.0000   
         H         H         1.0       0.3573639779219541  0.8534176446701611  0.864211992075939  1.0000   
         C         C         1.0       0.20982492473333486           0.8684290783267912 0.9398355617700576 1.0000   
         C         C         1.0       0.22516507814045067           0.8708677950507434 0.903548679894072  1.0000   
         H         H         1.0       0.19612612757749992           0.8514592561061591 0.9356993201200897 1.0000   
         H         H         1.0       0.21681738132311504           0.8680358105806992 0.9688186332185769 1.0000   
         H         H         1.0       0.23941202142235893           0.887723078943436  0.899869127052477  1.0000   
         H         H         1.0       0.216566278231442   0.8691495881911523  0.874133229742234  1.0000   
         C         C         1.0       0.13847925820871873           0.7869878749896155 0.6973214423554177 1.0000   
         C         C         1.0       0.13135215481730558           0.7824851068919421 0.6502243190157638 1.0000   
         H         H         1.0       0.12432444723690579           0.781163314068233  0.7167923530591465 1.0000   
         H         H         1.0       0.1469192727292242  0.8048659146933693  0.7037420112358376 1.0000   
         H         H         1.0       0.1450141099645079  0.7842234598891596  0.6302693693813004 1.0000   
         H         H         1.0       0.11991405101444272           0.765043376059465  0.6489904529938636 1.0000   
         C         C         1.0       0.14934840321913287           0.6671757357341301 0.31386591447129253          1.0000   
         C         C         1.0       0.15340079208411217           0.6669312071352889 0.3595323061152977 1.0000   
         H         H         1.0       0.13175992181480456           0.6580460380305374 0.3074711715263849 1.0000   
         H         H         1.0       0.1546173261213182  0.6577602528029275  0.2942528550101836 1.0000   
         H         H         1.0       0.15016759868970686           0.6773177065435505 0.37666061864193073          1.0000   
         H         H         1.0       0.17124059048677615           0.6735133884823833 0.36495074791828575          1.0000   
         C         C         1.0       0.3319437017852678  0.8448234971152859  0.38151613911732374          1.0000   
         C         C         1.0       0.3380451084256915  0.8497649847534288  0.33345571869769614          1.0000   
         H         H         1.0       0.340071957976341   0.8612634267809278  0.39463643735669635          1.0000   
         H         H         1.0       0.33816375912864194           0.834700283783485  0.3970598756816027 1.0000   
         H         H         1.0       0.3295888158949266  0.8342662483079075  0.31708869919325267          1.0000   
         H         H         1.0       0.330418119106954   0.8581130663339844  0.31673288380529674          1.0000   
         C         C         1.0       0.21163742082139264           0.7697202555614525 0.5593227583047398 1.0000   
         C         C         1.0       0.22923139023461087           0.76815322047244   0.5838818036482558 1.0000   
         H         H         1.0       0.20449305623868552           0.778546533557409  0.5774022474713916 1.0000   
         H         H         1.0       0.19833702396093783           0.7527793681373354 0.5546594367266278 1.0000   
         H         H         1.0       0.2309699569886673  0.7548512502741286  0.5721416759707431 1.0000   
         H         H         1.0       0.2460804749670555  0.7811106259261335  0.5752530745123139 1.0000   
         C         C         1.0       0.2363902858525229  0.7646637875814056  0.06574130723699056          1.0000   
         C         C         1.0       0.21526035386672895           0.7642829112008481 0.07249365631534695          1.0000   
         H         H         1.0       0.23492285583959566           0.7482532860500507 0.0693374584113229 1.0000   
         H         H         1.0       0.24864537162373507           0.7754176490663522 0.09147872044117156          1.0000   
         H         H         1.0       0.20246630641425925           0.7501877951202434 0.053578564994631615         1.0000   
         H         H         1.0       0.21416024879860215           0.778861277652228  0.06199139199162294          1.0000   
         C         C         1.0       0.2117566671019599  0.8737134034714847  0.3508414998743596 1.0000   
         C         C         1.0       0.2231411923051979  0.8950653325517044  0.3763734102232528 1.0000   
         H         H         1.0       0.21154590511021154           0.8766054420044896 0.3161073695467169 1.0000   
         H         H         1.0       0.1932523650172499  0.8653556920712473  0.35492027845448   1.0000   
         H         H         1.0       0.23476030231645756           0.9083739958997156 0.35366892957685536          1.0000   
         H         H         1.0       0.23531959356174018           0.8956106856208959 0.3964487762343833 1.0000   
         C         C         1.0       0.12417994855793646           0.7881932548848468 0.13274094536749148          1.0000   
         C         C         1.0       0.12190614632360383           0.7837999547694343 0.17906164299155114          1.0000   
         H         H         1.0       0.11231048030537219           0.7722445533805821 0.11791169492493055          1.0000   
         H         H         1.0       0.1389646257057239  0.7896931571165092  0.12270518510568508          1.0000   
         H         H         1.0       0.10562925000742633           0.7697796572817914 0.1835153259874409 1.0000   
         H         H         1.0       0.12228979207803731           0.7971927189871325 0.19758451938030872          1.0000

