data_0
_chemical_formula_structural 
                                        C6H4C38H24C6H4C38H24C6H4C38H24C6H4C38H24C6H4C38H24C6H4C38H24C6H4C38H24C6H4C38H24C6H4C38H24C6H4C38H24C6H4C38H24C6H4C38H24C6H4C38H24C6H4C38H24C6H4C38H24C6H4C38H24C6H4C38H24C6H4C38H24C6H4C38H24C6H4C38H24C6H4C38H24C6H4C38H24C6H4C38H24C6H4C38H24C6H4C38H24C6H4C38H24C6H4C38H24C6H4C38H24C6H4C38H24C6H4C38H24C6H4C38H24C6H4C38H24C6H4C38H24C6H4C38H24C6H4C38H24C6H4C38H24C2H4C2H4C2H4C2H4C2H4C2H4C2H4C2H4C2H4C2H4C2H4C2H4C2H4C2H4C2H4C2H4C2H4C2H4C2H4C2H4C2H4C2H4C2H4C2H4C2H4C2H4C2H4C2H4C2H4C2H4C2H4C2H4C2H4C2H4C2H4C2H4C2H4C2H4C2H4C2H4C2H4C2H4C2H4C2H4C2H4C2H4C2H4C2H4C2H4C2H4C2H4C2H4C2H4C2H4C2H4C2H4C2H4C2H4C2H4C2H4C2H4C2H4C2H4C2H4C2H4C2H4C2H4C2H4C2H4C2H4C2H4C2H4C2H4C2H4C2H4C2H4C2H4C2H4C2H4C2H4C2H4C2H4C2H4C2H4C2H4C2H4C2H4C2H4C2H4C2H4C2H4C2H4C2H4C2H4C2H4C2H4C2H4C2H4C2H4C2H4C2H4C2H4C2H4C2H4C2H4C2H4C2H4C2H4
_chemical_formula_sum                   'C1800 H1440'
_cell_length_a                          55.786982841345775
_cell_length_b                          59.8606548251163
_cell_length_c                          24.962812334523907
_cell_angle_alpha                       90.53634582779408
_cell_angle_beta                        89.64217440132451
_cell_angle_gamma                       126.70939769406644
_space_group_name_H-M_alt               'P 1'
_space_group_IT_number                  1
loop_
  _space_group_symop_operation_xyz
         'x, y, z' 
loop_
  _atom_site_type_symbol
  _atom_site_label
  _atom_site_symmetry_multiplicity
  _atom_site_fract_x
  _atom_site_fract_y
  _atom_site_fract_z
  _atom_site_occupancy
         C         C         1.0       0.18381435192366452           0.7565372442204008 0.35986082695396665          1.0000   
         C         C         1.0       0.19025761847319655           0.7630713231832996 0.30729619907248995          1.0000   
         C         C         1.0       0.19305303163148643           0.7862962447572998 0.2861759387704549 1.0000   
         C         C         1.0       0.1870582815347595  0.8013471353512099  0.31752631481351645          1.0000   
         C         C         1.0       0.17832380392532404           0.7935015751377897 0.3685860579942906 1.0000   
         C         C         1.0       0.17820249159648702           0.7723661674724894 0.39065407267562546          1.0000   
         H         H         1.0       0.19398450957740618           0.7511073377475723 0.28067755511864145          1.0000   
         H         H         1.0       0.19759575523149306           0.7891668808792844 0.24714563477124443          1.0000   
         H         H         1.0       0.17198533444047986           0.803877351566991  0.39146283541071286          1.0000   
         H         H         1.0       0.1743875339586641  0.7694446862083687  0.4340865977618448 1.0000   
         C         C         1.0       0.14537996223036123           0.8222794072187934 0.3149859385967951 1.0000   
         C         C         1.0       0.17576103370309293           0.8396184549316997 0.32055761648612824          1.0000   
         C         C         1.0       0.18823636823026302           0.8671036032752153 0.33312341331383577          1.0000   
         C         C         1.0       0.17124554818467724           0.8763808122446971 0.3419525080801458 1.0000   
         C         C         1.0       0.14095455954547584           0.8592012077886434 0.3339156280687905 1.0000   
         C         C         1.0       0.12786239116510198           0.8318080119372281 0.32186489625737097          1.0000   
         C         C         1.0       0.1970970910680676  0.8315784442254393  0.30037367917442115          1.0000   
         C         C         1.0       0.1929544312500456  0.8345730410642415  0.23871063147096544          1.0000   
         C         C         1.0       0.21073355468213456           0.8608037018288696 0.2140503367053267 1.0000   
         C         C         1.0       0.20940072690123848           0.8650799344144744 0.16045662647125025          1.0000   
         C         C         1.0       0.1876193445465179  0.8432097040007538  0.13121978066312412          1.0000   
         C         C         1.0       0.16984997157330428           0.8169306354622329 0.1537152918722202 1.0000   
         C         C         1.0       0.1712653822910969  0.8127694690407682  0.2073540243318261 1.0000   
         C         C         1.0       0.23515768312192287           0.8586574819239342 0.376382880978044  1.0000   
         C         C         1.0       0.262423888897189   0.8796089440036788  0.39266661521193674          1.0000   
         C         C         1.0       0.28751041012648754           0.8908685111404542 0.35907019180564853          1.0000   
         C         C         1.0       0.2822585460986859  0.8794277596145655  0.30910020000983746          1.0000   
         C         C         1.0       0.25347785714328586           0.857945981878145  0.2927797135930195 1.0000   
         C         C         1.0       0.23000922093711246           0.8493704377594076 0.324940976050889  1.0000   
         C         C         1.0       0.31793602222384704           0.921825587033901  0.3656100336827034 1.0000   
         C         C         1.0       0.28988864345106086           0.9677582925820556 0.28608281960401516          1.0000   
         C         C         1.0       0.28408885064827927           0.9609917960874912 0.34009325172425653          1.0000   
         C         C         1.0       0.29516034260515345           0.9485732806176506 0.36522402410341004          1.0000   
         C         C         1.0       0.3088449085557996  0.9395343215510145  0.33743742253512155          1.0000   
         C         C         1.0       0.3128880205920724  0.9451694137935641  0.28216734010727523          1.0000   
         C         C         1.0       0.30366007717056814           0.9588991839298758 0.2566324252091624 1.0000   
         C         C         1.0       0.34383621412316345           0.9214791947004238 0.33962248441240367          1.0000   
         C         C         1.0       0.3473793898164791  0.9019268124037673  0.3604415914402334 1.0000   
         C         C         1.0       0.36488176218868756           0.8962482487528539 0.33200561046868493          1.0000   
         C         C         1.0       0.3849215236145794  0.9137833426808109  0.29422934772802994          1.0000   
         C         C         1.0       0.38411531016093076           0.9352130062286942 0.2778328828274921 1.0000   
         C         C         1.0       0.3649328603318391  0.9391648150704401  0.30322635340912096          1.0000   
         C         C         1.0       0.35222396580192206           0.9627766771887414 0.4326171833899875 1.0000   
         C         C         1.0       0.3618910958601591  0.9735348119641976  0.4816466142591335 1.0000   
         C         C         1.0       0.3518028793254982  0.9567375637213693  0.5252515972355339 1.0000   
         C         C         1.0       0.3335220597800804  0.9290254486996161  0.518428160966028  1.0000   
         C         C         1.0       0.3236642371658003  0.9162329341554256  0.46930964227623606          1.0000   
         C         C         1.0       0.33198919415374933           0.9337227868081637 0.42445156388208183          1.0000   
         H         H         1.0       0.13525964216589478           0.8004609085850086 0.30826819494899577          1.0000   
         H         H         1.0       0.21211933379209882           0.8839051519223985 0.33897236635765826          1.0000   
         H         H         1.0       0.1846629443438822  0.8977597382333062  0.3511053138632776 1.0000   
         H         H         1.0       0.10532977851606272           0.8176369118550405 0.3152680521928447 1.0000   
         H         H         1.0       0.22636365123522906           0.8778917725726925 0.2411534957353761 1.0000   
         H         H         1.0       0.2262572714973562  0.8857753621448002  0.14223112677803873          1.0000   
         H         H         1.0       0.1565767694307424  0.800315798578872   0.12556111569512574          1.0000   
         H         H         1.0       0.15848674291454723           0.7924157841190681 0.22257924622747186          1.0000   
         H         H         1.0       0.21608768709807463           0.8520324203809632 0.4021312017507298 1.0000   
         H         H         1.0       0.26345998310696755           0.8881053159117503 0.43192889025019926          1.0000   
         H         H         1.0       0.2985163065359494  0.8887221684499321  0.27898455944097433          1.0000   
         H         H         1.0       0.24672150492324393           0.8493850344417034 0.25235111770656077          1.0000   
         H         H         1.0       0.2736490934656932  0.9677249732512735  0.36432999535742455          1.0000   
         H         H         1.0       0.292100759072739   0.9459704151337275  0.4092579390511291 1.0000   
         H         H         1.0       0.32000263763409414           0.9361695076233054 0.2569134484633989 1.0000   
         H         H         1.0       0.3061591722482288  0.9626326685344045  0.21322186145820085          1.0000   
         H         H         1.0       0.33136900882222314           0.8862398387279157 0.3893563517844374 1.0000   
         H         H         1.0       0.3668966458048536  0.8801981839589503  0.34687619074671944          1.0000   
         H         H         1.0       0.39672828506130337           0.9484154750537209 0.24518672986273937          1.0000   
         H         H         1.0       0.36636789682444143           0.9571389222281864 0.2857018796885896 1.0000   
         H         H         1.0       0.3574627842770817  0.9782435771111521  0.40340733835510184          1.0000   
         H         H         1.0       0.37687088722761736           0.995784373186597  0.48377451161464724          1.0000   
         H         H         1.0       0.3262995757777951  0.9171657326510215  0.5530956206823379 1.0000   
         H         H         1.0       0.3094586919243411  0.8940066624251214  0.4648755101492345 1.0000   
         C         C         1.0       0.352385781745478   0.8326100003389781  0.7912277146617218 1.0000   
         C         C         1.0       0.3731871460662117  0.8617313949255484  0.7931909157378488 1.0000   
         C         C         1.0       0.3647690512376025  0.8784816741818292  0.789602523567774  1.0000   
         C         C         1.0       0.3339028035879771  0.8670474127741558  0.7849375315759662 1.0000   
         C         C         1.0       0.3137475871143796  0.8377176073677635  0.7888028337790097 1.0000   
         C         C         1.0       0.3230222230535447  0.8208046290080167  0.7913809334960965 1.0000   
         H         H         1.0       0.396845624518066   0.8716953015424054  0.7929869922344159 1.0000   
         H         H         1.0       0.38160697605208754           0.9002170101378109 0.7895512791530396 1.0000   
         H         H         1.0       0.28984899033208616           0.8278676186634777 0.7845075981756058 1.0000   
         H         H         1.0       0.3073816691861769  0.798852738346193   0.7960530352599775 1.0000   
         C         C         1.0       0.28527569964731386           0.8552540405687576 0.7077014241746212 1.0000   
         C         C         1.0       0.292116130010383   0.8716190301990521  0.751717415161937  1.0000   
         C         C         1.0       0.2703790415906005  0.8739419547758517  0.773299704545546  1.0000   
         C         C         1.0       0.24185500401602972           0.8593638906309089 0.7523305721487119 1.0000   
         C         C         1.0       0.23495304443203127           0.8401517300032137 0.7114657280407498 1.0000   
         C         C         1.0       0.2568664132745332  0.8389383932938613  0.6885541007342897 1.0000   
         C         C         1.0       0.3246560157309958  0.8878287643127042  0.7796462759290808 1.0000   
         C         C         1.0       0.3435125777450352  0.9107954336478545  0.7350614426106334 1.0000   
         C         C         1.0       0.3452718933339008  0.9347803656899842  0.7388577106161914 1.0000   
         C         C         1.0       0.36158219747812376           0.9551063293672774 0.7013724443430115 1.0000   
         C         C         1.0       0.3706747740338151  0.9485561861402628  0.656293662784788  1.0000   
         C         C         1.0       0.36799918759553    0.9240179429120338  0.6494127731453687 1.0000   
         C         C         1.0       0.3551601473992294  0.9059372460691587  0.6907270862137074 1.0000   
         C         C         1.0       0.305698290294199   0.8775378395814512  0.8762559561616384 1.0000   
         C         C         1.0       0.3094686451710883  0.8835507923327313  0.9298736076181251 1.0000   
         C         C         1.0       0.33324423436632544           0.9094205155830452 0.9506946200301833 1.0000   
         C         C         1.0       0.355182318693063   0.9278253200103891  0.9152412599305226 1.0000   
         C         C         1.0       0.3518630780780844  0.9204709872361213  0.8614281019056647 1.0000   
         C         C         1.0       0.32649066548498085           0.8966324795385108 0.8409789894750427 1.0000   
         C         C         1.0       0.33571906784053074           0.9137451405516838 0.015263037475838681         1.0000   
         C         C         1.0       0.37599021365003593           0.9932072289649552 0.09416307139517022          1.0000   
         C         C         1.0       0.366113574066181   0.9697264871953796  0.12349396009172509          1.0000   
         C         C         1.0       0.35362130885055304           0.9452359252907491 0.09909927075183189          1.0000   
         C         C         1.0       0.3477105260179873  0.9426335915179268  0.042999324018905716         1.0000   
         C         C         1.0       0.3554857065541261  0.9652345086039998  0.015069714058587369         1.0000   
         C         C         1.0       0.37119911253042276           0.9916982387108939 0.040632296763984055         1.0000   
         C         C         1.0       0.3545475120252232  0.9031049834866552  0.03101730834011107          1.0000   
         C         C         1.0       0.3424330125235735  0.8746456873470958  0.02163473621330403          1.0000   
         C         C         1.0       0.36129190849312154           0.8664763631757424 0.019545488646708353         1.0000   
         C         C         1.0       0.39006570849091476           0.8853830959836928 0.029808581773061782         1.0000   
         C         C         1.0       0.4031359777100518  0.9130160321515537  0.043094287133942366         1.0000   
         C         C         1.0       0.3847028229105153  0.9208532222107347  0.04086696468867146          1.0000   
         C         C         1.0       0.28199591981824124           0.9026237034554017 0.011249546896041185         1.0000   
         C         C         1.0       0.25082861154187946           0.8837849541568058 0.017736104001250474         1.0000   
         C         C         1.0       0.23918182635772045           0.8601095380917664 0.04598576771461316          1.0000   
         C         C         1.0       0.2573994372472757  0.8564962965375881  0.07690612667231655          1.0000   
         C         C         1.0       0.28751607537835594           0.8742987661470232 0.0707488767443909 1.0000   
         C         C         1.0       0.30052802022844793           0.8963090229346824 0.03353200066670703          1.0000   
         H         H         1.0       0.30268312641370054           0.853571094059065  0.6897001666120324 1.0000   
         H         H         1.0       0.27497745256618267           0.8882286401605266 0.8066905616239184 1.0000   
         H         H         1.0       0.22586261544420855           0.8624724726290081 0.7653318571512863 1.0000   
         H         H         1.0       0.25200712185212004           0.824888532044141  0.6563614918805314 1.0000   
         H         H         1.0       0.33779301199175676           0.9413224394727734 0.7722911954592211 1.0000   
         H         H         1.0       0.36575610223026145           0.9749314665795122 0.7064564861085121 1.0000   
         H         H         1.0       0.37470890690799163           0.9187490415343933 0.6152289578366199 1.0000   
         H         H         1.0       0.35098430808628595           0.8859143173431395 0.685969010088073  1.0000   
         H         H         1.0       0.2873431274590687  0.858199187029588   0.8581965179617195 1.0000   
         H         H         1.0       0.2928057441475732  0.866190532120534   0.9545795695949292 1.0000   
         H         H         1.0       0.37566208815687746           0.9467105612325661 0.9285065197936073 1.0000   
         H         H         1.0       0.36948842213009603           0.9344283631515475 0.8388861505598184 1.0000   
         H         H         1.0       0.36757213354166096           0.969731623171487  0.16527836035014554          1.0000   
         H         H         1.0       0.34363762672025444           0.925244954354081  0.12191091118810338          1.0000   
         H         H         1.0       0.35077490562292496           0.9623519598248891 0.9709888348480952 1.0000   
         H         H         1.0       0.38079873781033124           0.01037811662770216          0.018474751916794707         1.0000   
         H         H         1.0       0.3199767580021199  0.858973629795751   0.012254196774437176         1.0000   
         H         H         1.0       0.3533841136558857  0.8458676874027483  0.0084201785618232 1.0000   
         H         H         1.0       0.42677633844196    0.9264987789464368  0.055059855469522745         1.0000   
         H         H         1.0       0.39455977811072274           0.9426182340866361 0.05475352209162909          1.0000   
         H         H         1.0       0.2934312631949632  0.9199551080238694  0.9850647973146505 1.0000   
         H         H         1.0       0.23612213034041526           0.8855734417706362 0.993718053244169  1.0000   
         H         H         1.0       0.24863636509014497           0.8384439400258488 0.10227738059963687          1.0000   
         H         H         1.0       0.30099445196775326           0.868539541122873  0.08744333199004628          1.0000   
         C         C         1.0       0.18029282651438558           0.0556967684069134 0.15230072160988845          1.0000   
         C         C         1.0       0.1979225215726037  0.06495094302752547           0.19740810630643885          1.0000   
         C         C         1.0       0.20037291496872434           0.04731915800590447          0.22722541154522852          1.0000   
         C         C         1.0       0.1852484074499833  0.019136999916553377         0.213111402874162  1.0000   
         C         C         1.0       0.16685749497763927           0.009214661739871843         0.1679097841734918 1.0000   
         C         C         1.0       0.16428440713826528           0.02770432342686835          0.13837449035459395          1.0000   
         H         H         1.0       0.21218414059392174           0.08674415327879559          0.205642720475478  1.0000   
         H         H         1.0       0.21571445094025343           0.05485614487911694          0.2610622672238857 1.0000   
         H         H         1.0       0.15706108875839983           0.9876035068102217 0.154295958681228  1.0000   
         H         H         1.0       0.15102928642499336           0.021369829737208912         0.10332499327955236          1.0000   
         C         C         1.0       0.14318771304187425           0.9536956223527674 0.2500482058729513 1.0000   
         C         C         1.0       0.1739004158520779  0.9693991123099398  0.25529370552643127          1.0000   
         C         C         1.0       0.1876280943463096  0.956736788528806   0.26928667729393585          1.0000   
         C         C         1.0       0.17044272436587632           0.9283157556262731 0.2752120862874889 1.0000   
         C         C         1.0       0.14053309060425437           0.9132634253929723 0.2720519694204713 1.0000   
         C         C         1.0       0.12734593135060107           0.9252451089735718 0.26017945542550935          1.0000   
         C         C         1.0       0.19575884968224663           0.0027936158519534793        0.24496347423137943          1.0000   
         C         C         1.0       0.19493592163100984           0.009805552892488079         0.3092828052437849 1.0000   
         C         C         1.0       0.21668875029116177           0.01465918557552448          0.34421964818834216          1.0000   
         C         C         1.0       0.21886793571645635           0.02361245421153857          0.3947572519486341 1.0000   
         C         C         1.0       0.19548754515890607           0.022805751056166113         0.4171445062567315 1.0000   
         C         C         1.0       0.17444343838577547           0.019149560024350754         0.38512380345102554          1.0000   
         C         C         1.0       0.17309432948858056           0.010855320960504677         0.3315482932354893 1.0000   
         C         C         1.0       0.22351602358211142           0.9981966498641527 0.1746141121229614 1.0000   
         C         C         1.0       0.24813772876460685           0.007502261340966543         0.14329158587377244          1.0000   
         C         C         1.0       0.2747959693134005  0.03350341991169836           0.15271925340101467          1.0000   
         C         C         1.0       0.2782004658765424  0.04805781778045226           0.19928591164162074          1.0000   
         C         C         1.0       0.2536821095157562  0.0370786545096351  0.23087624327648965          1.0000   
         C         C         1.0       0.22547883074762748           0.012809274131807769         0.21831728384416013          1.0000   
         C         C         1.0       0.3022736354043817  0.04899537609796112           0.10953191412923746          1.0000   
         C         C         1.0       0.36679095305029363           0.034530714029777476         0.16856803800097597          1.0000   
         C         C         1.0       0.33892590409176315           0.01364191204485432          0.150776032760487  1.0000   
         C         C         1.0       0.31852197321453624           0.01878477448661009          0.13706156669552794          1.0000   
         C         C         1.0       0.32509168328239546           0.045057240894389006         0.14123840920073283          1.0000   
         C         C         1.0       0.35184091810285184           0.0647170972693687 0.16736231700803716          1.0000   
         C         C         1.0       0.37344923793929796           0.06055423134504978          0.176205551583694  1.0000   
         C         C         1.0       0.31272723266681957           0.07983394985952708          0.09858331245087171          1.0000   
         C         C         1.0       0.2906705624892813  0.08426709257008125           0.09739989894360912          1.0000   
         C         C         1.0       0.29840925092399445           0.10990547510968529          0.09406348246161933          1.0000   
         C         C         1.0       0.32801313953508404           0.1333761422089179 0.09450755294012314          1.0000   
         C         C         1.0       0.35041213203448957           0.13007158340136082          0.09370287486828333          1.0000   
         C         C         1.0       0.3431879914836818  0.10368256600545633           0.09254661048773527          1.0000   
         C         C         1.0       0.3239464508831406  0.04326340772266901           0.021807539557194167         1.0000   
         C         C         1.0       0.32060206322454426           0.029995811396182237         0.9751522848759018 1.0000   
         C         C         1.0       0.2936669720577125  0.011046847763519052         0.9521343531651988 1.0000   
         C         C         1.0       0.26787643549808104           0.006496795804711963         0.9742860372178674 1.0000   
         C         C         1.0       0.2704064214491795  0.019043897788190378         0.02246805038378019          1.0000   
         C         C         1.0       0.29822255435811956           0.03712164401796092          0.048490859447866574         1.0000   
         H         H         1.0       0.13106862391007834           0.961977119958511  0.24306697666103486          1.0000   
         H         H         1.0       0.21150443727408733           0.9676212982398749 0.2774438356043836 1.0000   
         H         H         1.0       0.18242033813858383           0.9196014647467962 0.2851183745486762 1.0000   
         H         H         1.0       0.10283894578302784           0.9125289219572119 0.2564073803380212 1.0000   
         H         H         1.0       0.23533588686396156           0.016332564964138596         0.329821623759791  1.0000   
         H         H         1.0       0.23732368704687526           0.02800064252008072          0.41975594794847554          1.0000   
         H         H         1.0       0.15705756358682912           0.01848355092567977          0.40666439359130524          1.0000   
         H         H         1.0       0.15385309147678097           0.004426086287995679         0.309602533747634  1.0000   
         H         H         1.0       0.20311777939943407           0.9790481580476291 0.1647676715430022 1.0000   
         H         H         1.0       0.24497002124022094           0.9940448021967518 0.11114419744258597          1.0000   
         H         H         1.0       0.30090508526330106           0.06715794931640096          0.21143055383143475          1.0000   
         H         H         1.0       0.25737732804558616           0.04877953123373935          0.2656193041581593 1.0000   
         H         H         1.0       0.3346861284788226  0.9937038806265412  0.14652923808693874          1.0000   
         H         H         1.0       0.29746360359098123           0.0033993092994346608        0.11940053601932887          1.0000   
         H         H         1.0       0.35704419715163377           0.08409527190128507          0.17121630985282077          1.0000   
         H         H         1.0       0.39543973176096486           0.07652658935466561          0.1919151956883982 1.0000   
         H         H         1.0       0.2669945046805196  0.06650686425380803           0.10982278085500496          1.0000   
         H         H         1.0       0.2799404044849919  0.11175058024505669           0.1007782762767746 1.0000   
         H         H         1.0       0.37302517402875435           0.14915108983440417          0.09457513991956956          1.0000   
         H         H         1.0       0.3593980132011676  0.10056793320111956           0.08905981041189759          1.0000   
         H         H         1.0       0.3457736184870075  0.058571488537481065         0.04041501943809367          1.0000   
         H         H         1.0       0.3414523051345314  0.036406764285259685         0.955769399944569  1.0000   
         H         H         1.0       0.24663058047182324           0.9899482027688947 0.9558802203937784 1.0000   
         H         H         1.0       0.24883338636891345           0.01377326547904012          0.039881463711506804         1.0000   
         C         C         1.0       0.22524837946820778           0.9963388217938056 0.700505161218656  1.0000   
         C         C         1.0       0.24213853604714777           0.9971678057124631 0.7425219154722827 1.0000   
         C         C         1.0       0.25582028913429555           0.9850672799717191 0.7354658117674288 1.0000   
         C         C         1.0       0.2521703062995496  0.9691717516038278  0.6905653113181103 1.0000   
         C         C         1.0       0.2326055004022858  0.9667153418085964  0.652613073193954  1.0000   
         C         C         1.0       0.22146366349233637           0.980599062552855  0.6561853373592386 1.0000   
         H         H         1.0       0.24700657843246662           0.010745345134610229         0.7760212417334557 1.0000   
         H         H         1.0       0.272772012548497   0.9904478550522688  0.7652208683150035 1.0000   
         H         H         1.0       0.23147432798998682           0.9564208164814606 0.6163548073746618 1.0000   
         H         H         1.0       0.2047927399119069  0.9760039350150758  0.6232799929407097 1.0000   
         C         C         1.0       0.22297549899717223           0.9080196169368336 0.6629059794208458 1.0000   
         C         C         1.0       0.25336697581897233           0.9261880384315596 0.6574148344934532 1.0000   
         C         C         1.0       0.26866426537614624           0.9161223620675706 0.6402349430919845 1.0000   
         C         C         1.0       0.2549216690644922  0.8888817644947595  0.628406160824132  1.0000   
         C         C         1.0       0.22375389494803102           0.8700624191799547 0.6332264249636981 1.0000   
         C         C         1.0       0.20802495618352876           0.8803216085650943 0.6510845572872913 1.0000   
         C         C         1.0       0.2731776036285195  0.9584156074453787  0.6776252496199615 1.0000   
         C         C         1.0       0.28961637767914644           0.9589625949765999 0.7323492626172273 1.0000   
         C         C         1.0       0.31658369577859413           0.9822254133255847 0.7472428883256107 1.0000   
         C         C         1.0       0.3256283797195519  0.9885898391028595  0.7994971116857119 1.0000   
         C         C         1.0       0.30603476059958784           0.9738012034550578 0.8391660097465335 1.0000   
         C         C         1.0       0.27961193003597984           0.9487711819101129 0.8277685615399779 1.0000   
         C         C         1.0       0.27004477645632885           0.9420874780298829 0.7750271465935697 1.0000   
         C         C         1.0       0.29076688325923633           0.9703156501256868 0.5752677683762781 1.0000   
         C         C         1.0       0.2966960584934116  0.9878634566146307  0.532566367008144  1.0000   
         C         C         1.0       0.3090358990220441  0.015755166501542517         0.5440394991326004 1.0000   
         C         C         1.0       0.31640302951235094           0.024328738649584736         0.5966186974451617 1.0000   
         C         C         1.0       0.3080044390987817  0.00569401008190451           0.6365894250659587 1.0000   
         C         C         1.0       0.293406754236875   0.9782302278520831  0.6291595081429322 1.0000   
         C         C         1.0       0.3062448981867714  0.034208206574586564         0.5040122954469597 1.0000   
         C         C         1.0       0.3139414574387635  0.027399052925167977         0.3323227615940494 1.0000   
         C         C         1.0       0.29791297981346165           0.03616353020410723          0.35093691802643384          1.0000   
         C         C         1.0       0.2958866752217625  0.03908978302220145           0.4054778427352397 1.0000   
         C         C         1.0       0.31012655676264367           0.03310054234268356          0.4415843637135817 1.0000   
         C         C         1.0       0.33103465553966854           0.030376859945202783         0.42281594754611934          1.0000   
         C         C         1.0       0.3326220896563258  0.02660100313965752           0.36832396653434063          1.0000   
         C         C         1.0       0.33096875399285297           0.0670333167391699 0.5124873063332077 1.0000   
         C         C         1.0       0.3273188642787721  0.08737407325092561           0.5021825170888289 1.0000   
         C         C         1.0       0.34934792588037195           0.11471164215383145          0.505369605654554  1.0000   
         C         C         1.0       0.3769299444423421  0.12344522700933602           0.5169622821897998 1.0000   
         C         C         1.0       0.38329519131036727           0.1052007178824026 0.5226921768134918 1.0000   
         C         C         1.0       0.361655092348896   0.07759299195318037           0.5178421689033733 1.0000   
         C         C         1.0       0.24706707627633143           0.999559326840803  0.4968410647862949 1.0000   
         C         C         1.0       0.21922347330132097           0.9941731249359652 0.5046157451602661 1.0000   
         C         C         1.0       0.21628697084464207           0.011371904028096624         0.5320908671066924 1.0000   
         C         C         1.0       0.23979948250854896           0.03322079560441327          0.5616132491093323 1.0000   
         C         C         1.0       0.26747431275905936           0.03868076441870416          0.5544509728382622 1.0000   
         C         C         1.0       0.2716377735174238  0.023105773243070837         0.5196142347666773 1.0000   
         H         H         1.0       0.21177825330575376           0.915101728548544  0.6782810254689046 1.0000   
         H         H         1.0       0.2932294763528928  0.928016600480229   0.6392450748861812 1.0000   
         H         H         1.0       0.268749252408918   0.8826011808124326  0.6141221877559162 1.0000   
         H         H         1.0       0.18369342064132826           0.8638946585607276 0.6549608134025892 1.0000   
         H         H         1.0       0.33109733279105164           0.9956872786215508 0.7163538540908932 1.0000   
         H         H         1.0       0.34754724224975164           0.007667784483657902         0.8094582470718882 1.0000   
         H         H         1.0       0.26404109936466985           0.9343850346707876 0.8573074076989601 1.0000   
         H         H         1.0       0.24774901908757468           0.924804296346439  0.7662229431023078 1.0000   
         H         H         1.0       0.27702198860628485           0.9480351460807902 0.566160410227562  1.0000   
         H         H         1.0       0.2916235743415991  0.9812584252260436  0.49213497383949234          1.0000   
         H         H         1.0       0.32546380910733685           0.04470762091644076          0.6103622163213873 1.0000   
         H         H         1.0       0.3130884342443824  0.01552975947442925           0.6753732270125227 1.0000   
         H         H         1.0       0.28327193487327385           0.03531550438008835          0.3192180486313734 1.0000   
         H         H         1.0       0.2810570388624252  0.04444661378055592           0.4169628979893609 1.0000   
         H         H         1.0       0.3441507285174788  0.02705450157866718           0.4479726271192725 1.0000   
         H         H         1.0       0.3466233192646776  0.021067480317899623         0.3567104898177284 1.0000   
         H         H         1.0       0.3046491891843757  0.0804366659273612  0.49219728811160873          1.0000   
         H         H         1.0       0.3422185391712432  0.12844310992245656           0.5007438251670701 1.0000   
         H         H         1.0       0.4063384374247186  0.11239824016677269           0.5267414320596385 1.0000   
         H         H         1.0       0.36875983152077146           0.06435402254876421          0.5189351907663302 1.0000   
         H         H         1.0       0.2458950432263038  0.984282283969461   0.47057762101637   1.0000   
         H         H         1.0       0.20008416666484907           0.9772247937062315 0.4820350308058195 1.0000   
         H         H         1.0       0.23791515730255955           0.04609364966066387          0.5899360662574353 1.0000   
         H         H         1.0       0.28561470500268094           0.05612563683012506          0.5768654627941493 1.0000   
         C         C         1.0       0.5623355533608837  0.8911475625933175  0.40315429086913557          1.0000   
         C         C         1.0       0.5384234401373548  0.8876996082219475  0.4275332956496491 1.0000   
         C         C         1.0       0.5420633914943264  0.9084289214559415  0.4609402872286286 1.0000   
         C         C         1.0       0.5692254188815319  0.932749780260112   0.46914863042514665          1.0000   
         C         C         1.0       0.5930626846022495  0.9364859959474348  0.4419922492639306 1.0000   
         C         C         1.0       0.5892422077557856  0.9167061935830817  0.4065317436772233 1.0000   
         H         H         1.0       0.5144946021956688  0.8701795202541419  0.4173525425202121 1.0000   
         H         H         1.0       0.5210656483760278  0.9036057134661845  0.48076334721764785          1.0000   
         H         H         1.0       0.614409112754353   0.9563281748990304  0.44135117713469924          1.0000   
         H         H         1.0       0.6101981369684847  0.9233403392277199  0.3887480380578525 1.0000   
         C         C         1.0       0.6209122174465436  0.9620620353552963  0.5592666121040243 1.0000   
         C         C         1.0       0.6051434697923024  0.9721470204556062  0.5410501544990828 1.0000   
         C         C         1.0       0.6138685781362035  0.9976342387425225  0.5641121248493991 1.0000   
         C         C         1.0       0.6325373170397594  0.009846367411154189         0.606751183101272  1.0000   
         C         C         1.0       0.6453726971116398  0.9984300732659355  0.6269200792640205 1.0000   
         C         C         1.0       0.6401018074827715  0.9751516855774809  0.6033383361699722 1.0000   
         C         C         1.0       0.5735377527345973  0.9548695025726571  0.5099087715359151 1.0000   
         C         C         1.0       0.5549335447528324  0.9401982263539378  0.5636726362969534 1.0000   
         C         C         1.0       0.5448123147861467  0.9525668533066558  0.5965171088089855 1.0000   
         C         C         1.0       0.530327276675241   0.9405376011285717  0.6438844295441849 1.0000   
         C         C         1.0       0.5251520103430246  0.9166048070802406  0.6616904125974673 1.0000   
         C         C         1.0       0.5340246769411535  0.9042090163165737  0.629057230660433  1.0000   
         C         C         1.0       0.5519581665233544  0.917453736331635   0.5850488239898414 1.0000   
         C         C         1.0       0.586537240092911   0.9946859306591361  0.4474734657213037 1.0000   
         C         C         1.0       0.5768737246566581  0.005809322437761555         0.41698637341836287          1.0000   
         C         C         1.0       0.5474511311368685  0.9951016911366961  0.4138777422083049 1.0000   
         C         C         1.0       0.5260153699556909  0.9718774153479831  0.44232893547764246          1.0000   
         C         C         1.0       0.535766553300269   0.9591958422702016  0.4701897823234006 1.0000   
         C         C         1.0       0.5651161853254887  0.9703739427023146  0.47539629290233515          1.0000   
         C         C         1.0       0.5363351332210223  0.01032354582896211           0.3832033198725363 1.0000   
         C         C         1.0       0.525877883069329   0.055905301357962234         0.5085152260639532 1.0000   
         C         C         1.0       0.5536996590875098  0.06365208032990233           0.494412876713564  1.0000   
         C         C         1.0       0.556358685716598   0.04863159091725633           0.45612558272426584          1.0000   
         C         C         1.0       0.5318070564940266  0.024853516615557902         0.4326949737908473 1.0000   
         C         C         1.0       0.5039384044220424  0.015601343329269879         0.45491507740627957          1.0000   
         C         C         1.0       0.5015127666461521  0.03071210851748285           0.4920601999700162 1.0000   
         C         C         1.0       0.5071390969258719  0.9878009245288557  0.3473491948084229 1.0000   
         C         C         1.0       0.5043700244482746  0.9656209395973222  0.3207814902652648 1.0000   
         C         C         1.0       0.4793344882884088  0.9465584890376114  0.28937431600509345          1.0000   
         C         C         1.0       0.45848430460118383           0.9512555866643293 0.27939505746085935          1.0000   
         C         C         1.0       0.4640607554655882  0.9764083366892383  0.29558834863565925          1.0000   
         C         C         1.0       0.48790458968573414           0.9939878583859477 0.33113122825124125          1.0000   
         C         C         1.0       0.558826317490227   0.057271532966528094         0.3335385830997897 1.0000   
         C         C         1.0       0.5763363809514763  0.07675251905288683           0.2935202324764966 1.0000   
         C         C         1.0       0.5946571976635857  0.07417755806375625           0.2633618124725627 1.0000   
         C         C         1.0       0.5929036536811735  0.050433362203131216         0.2669844599649818 1.0000   
         C         C         1.0       0.5732287100291984  0.030127124471221123         0.3016144763909282 1.0000   
         C         C         1.0       0.5580690968764732  0.03410668234843417           0.339164388049079  1.0000   
         H         H         1.0       0.6149273007916257  0.942719680908192   0.5451889524729028 1.0000   
         H         H         1.0       0.5984570412193909  0.0029367926640957442        0.5572464745362105 1.0000   
         H         H         1.0       0.6371324623263557  0.029244333842269654         0.6228000915167236 1.0000   
         H         H         1.0       0.647490880324212   0.9641034997605871  0.6229660249492576 1.0000   
         H         H         1.0       0.5471428647103814  0.9699328742424748  0.5828659376903852 1.0000   
         H         H         1.0       0.5233193782347624  0.950511885290439   0.6671265380758645 1.0000   
         H         H         1.0       0.5349559539522828  0.8871443917735093  0.6412330769408708 1.0000   
         H         H         1.0       0.5604555544837903  0.907076416561386   0.5659640473271754 1.0000   
         H         H         1.0       0.6092873176775836  0.001496113207830163         0.43955414862608966          1.0000   
         H         H         1.0       0.5940437115785027  0.025033307264160642         0.3971569525828084 1.0000   
         H         H         1.0       0.5026091228028695  0.9606424133042631  0.44045903584958623          1.0000   
         H         H         1.0       0.5191995082418203  0.9403949867272863  0.49175321241554626          1.0000   
         H         H         1.0       0.5737772937421617  0.08388297266532274           0.5031803274604536 1.0000   
         H         H         1.0       0.57936182489268    0.05815298042874062           0.44036852090733714          1.0000   
         H         H         1.0       0.48353040763877275           0.9963736881494603 0.4470243791345614 1.0000   
         H         H         1.0       0.4800197867144112  0.025458304238269003         0.5027821520025844 1.0000   
         H         H         1.0       0.5177771378456435  0.9593516662460531  0.33085201569650935          1.0000   
         H         H         1.0       0.4778278896131731  0.9283833052946319  0.2764826311999087 1.0000   
         H         H         1.0       0.44942657776287503           0.9806337974836088 0.28131154016853926          1.0000   
         H         H         1.0       0.49289438085272314           0.014012789764380695         0.3446370019568809 1.0000   
         H         H         1.0       0.5457617975307778  0.06270402905826566           0.35683578097168966          1.0000   
         H         H         1.0       0.5750946676896076  0.09460410851478063           0.29510932941660106          1.0000   
         H         H         1.0       0.6074568727234064  0.0484461934436613  0.24057349466416375          1.0000   
         H         H         1.0       0.5729345982096252  0.011354434776210232         0.3037562871449648 1.0000   
         C         C         1.0       0.5599005579697923  0.9685934202262813  0.9373857625287776 1.0000   
         C         C         1.0       0.5497256179185744  0.9762002947237117  0.9787017602373349 1.0000   
         C         C         1.0       0.5629880711061799  0.0038998144289805747        0.9890271363681961 1.0000   
         C         C         1.0       0.5865253425436048  0.02488126270056301           0.9592058842778065 1.0000   
         C         C         1.0       0.5944590653426528  0.016467615237695687         0.9141850515829548 1.0000   
         C         C         1.0       0.5837609355531631  0.9888886231742381  0.9072828356746223 1.0000   
         H         H         1.0       0.5298572913933934  0.960387791508773   0.0024944300345888237        1.0000   
         H         H         1.0       0.5511154213082633  0.008457561287578352         0.013919637091575288         1.0000   
         H         H         1.0       0.613883008003702   0.030796182622412127         0.8856418233392098 1.0000   
         H         H         1.0       0.5931635792673378  0.9822890183377989  0.8768706746877655 1.0000   
         C         C         1.0       0.6517082872183108  0.0822369941962362  0.9585000877849903 1.0000   
         C         C         1.0       0.6265803036398765  0.08061215347213202           0.9456725933464629 1.0000   
         C         C         1.0       0.6321263637915814  0.10489082917405379           0.9268565830796635 1.0000   
         C         C         1.0       0.6607792125886954  0.1293143984901053  0.9254093934953639 1.0000   
         C         C         1.0       0.6852774122520443  0.1311361019326296  0.9465703274512512 1.0000   
         C         C         1.0       0.6794889033090804  0.10623036280333609           0.9626993901629284 1.0000   
         C         C         1.0       0.5927027326551189  0.05433958540960826           0.9618643931963832 1.0000   
         C         C         1.0       0.5935304276439199  0.06578120297638357           0.02098392391386472          1.0000   
         C         C         1.0       0.5882199305824611  0.08511417507095209           0.029463298186943154         1.0000   
         C         C         1.0       0.5928129182223881  0.09753375107092044           0.07905983360893944          1.0000   
         C         C         1.0       0.5977521242374415  0.08723377533223231           0.12219413182878515          1.0000   
         C         C         1.0       0.6021670205317192  0.06706972887364104           0.1148280920393101 1.0000   
         C         C         1.0       0.6037098023769445  0.05972703663857515           0.0640983527299206 1.0000   
         C         C         1.0       0.5677448331049697  0.04822918812115162           0.8691471336064315 1.0000   
         C         C         1.0       0.5417631193030101  0.0304770631716329  0.839040539016292  1.0000   
         C         C         1.0       0.513406711848616   0.013865793801468573         0.8630248312306831 1.0000   
         C         C         1.0       0.5126827249827943  0.021592528364792196         0.913926461295674  1.0000   
         C         C         1.0       0.5385416519718794  0.03808110915669438           0.9451460881328796 1.0000   
         C         C         1.0       0.5662476311840184  0.04887666312784367           0.9241922637517728 1.0000   
         C         C         1.0       0.4862133219052289  0.9880634325547201  0.8331790783625127 1.0000   
         C         C         1.0       0.44057818956165573           0.01883504223444299          0.7644902933482669 1.0000   
         C         C         1.0       0.4614815179819304  0.018902710796190547         0.7316378342329072 1.0000   
         C         C         1.0       0.4783361118165835  0.011395267569098033         0.7564407943141885 1.0000   
         C         C         1.0       0.4708162527615544  0.0005490677640997976        0.8091368553021069 1.0000   
         C         C         1.0       0.4486215585211511  0.9987851672288599  0.8378375050232438 1.0000   
         C         C         1.0       0.43356057658906505           0.00821425873306092          0.816144966323137  1.0000   
         C         C         1.0       0.46701954118936595           0.9626029730356617 0.8772258624672118 1.0000   
         C         C         1.0       0.4817138246320291  0.9567919243935451  0.9145982502807672 1.0000   
         C         C         1.0       0.46617589057306646           0.931796266681643  0.9419746879904158 1.0000   
         C         C         1.0       0.435960931710158   0.9124717187911086  0.9300682253171728 1.0000   
         C         C         1.0       0.42119168084340763           0.9182750063427562 0.8950365579600642 1.0000   
         C         C         1.0       0.4371018696511037  0.9432983625881142  0.867222906829026  1.0000   
         C         C         1.0       0.47306902181739546           0.9546562886375903 0.7587361456513992 1.0000   
         C         C         1.0       0.4699236383306282  0.9323139475479001  0.7380862090074642 1.0000   
         C         C         1.0       0.4893846336766557  0.9265715905158204  0.7555181574366909 1.0000   
         C         C         1.0       0.5119102833892104  0.9439611555925783  0.7910484888702579 1.0000   
         C         C         1.0       0.515213424121239   0.9677800473170708  0.8086169528522027 1.0000   
         C         C         1.0       0.49444798149326447           0.9723731233142291 0.7929749982007619 1.0000   
         H         H         1.0       0.6471037782145914  0.06261514340463337           0.9712433759929935 1.0000   
         H         H         1.0       0.6113517332064824  0.10221624790093076           0.9137907569737628 1.0000   
         H         H         1.0       0.6666574378642939  0.14831772122183384           0.9056061410765106 1.0000   
         H         H         1.0       0.6989238929108003  0.10802582723419141           0.9755240446157439 1.0000   
         H         H         1.0       0.5791439963984756  0.09107455486491745           0.9978991123828225 1.0000   
         H         H         1.0       0.5851284781118141  0.10962899211959365           0.08584424186018813          1.0000   
         H         H         1.0       0.6088192600083462  0.060121537439988826         0.1482929828039879 1.0000   
         H         H         1.0       0.6102080880378506  0.04636670415282951           0.061038113728169696         1.0000   
         H         H         1.0       0.5889271355199921  0.054279904191010475         0.8489266898064937 1.0000   
         H         H         1.0       0.5448978292253065  0.026951864070248188         0.7980690896824336 1.0000   
         H         H         1.0       0.4909857997555776  0.011074435247213854         0.9305901631525382 1.0000   
         H         H         1.0       0.535222706490037   0.03856032612654947           0.9910463922219944 1.0000   
         H         H         1.0       0.46741883361377623           0.02675043718590664          0.6911978253309722 1.0000   
         H         H         1.0       0.4956230556833101  0.013091076897888687         0.733885481689411  1.0000   
         H         H         1.0       0.44235229494548134           0.990919252244261  0.8782581298500968 1.0000   
         H         H         1.0       0.41617550150945853           0.00608653538465731          0.8390682682120764 1.0000   
         H         H         1.0       0.5058277579001328  0.9737975854784171  0.9188942564569695 1.0000   
         H         H         1.0       0.4787347615534053  0.927688780385743   0.9683932291666182 1.0000   
         H         H         1.0       0.3973488468598657  0.9022208033624882  0.8869355910452241 1.0000   
         H         H         1.0       0.42399984013165004           0.9468284351122178 0.8399296241841842 1.0000   
         H         H         1.0       0.4580274469287911  0.9592233032110804  0.7398248560109131 1.0000   
         H         H         1.0       0.4551203792959927  0.9220788291329064  0.7035879341190753 1.0000   
         H         H         1.0       0.5260894330368864  0.9394277921022827  0.8040211045813979 1.0000   
         H         H         1.0       0.529703882554899   0.9781990145684667  0.842385620418597  1.0000   
         C         C         1.0       0.7468196075595057  0.28303391069365397           0.2512432722450087 1.0000   
         C         C         1.0       0.7204437961464857  0.2791305699918892  0.23836072659239854          1.0000   
         C         C         1.0       0.6970706802421774  0.25405937348654206           0.21885713179923838          1.0000   
         C         C         1.0       0.7014293993658945  0.23465083001529882           0.1977583431379472 1.0000   
         C         C         1.0       0.7285800005841799  0.24048719183791148           0.21125848612020465          1.0000   
         C         C         1.0       0.7515382467982746  0.2645072626396187  0.23495726107166987          1.0000   
         H         H         1.0       0.7145258613464761  0.2926138689504049  0.2536218190313117 1.0000   
         H         H         1.0       0.6737481873395281  0.2467596599358472  0.21876887167598455          1.0000   
         H         H         1.0       0.734834772889641   0.22639659752064828           0.20799628240321794          1.0000   
         H         H         1.0       0.7726564180665518  0.2684764439923041  0.2401772248907532 1.0000   
         C         C         1.0       0.707437887943923   0.20977335898259383           0.09346868450504543          1.0000   
         C         C         1.0       0.6854653599607329  0.19246134380179755           0.13273373670971012          1.0000   
         C         C         1.0       0.6744657966546909  0.16461015286244826           0.12763839351830808          1.0000   
         C         C         1.0       0.6865086408824138  0.155518280941028   0.09177354935540195          1.0000   
         C         C         1.0       0.7066633340579784  0.17273937704239056           0.054674427250894775         1.0000   
         C         C         1.0       0.7165478753557029  0.19970917330701538           0.05702483221641864          1.0000   
         C         C         1.0       0.6746082803275123  0.20443507051187307           0.17486353161135618          1.0000   
         C         C         1.0       0.6530537230516983  0.20547578644222425           0.1351175123829037 1.0000   
         C         C         1.0       0.6261195193372252  0.18285543151212375           0.12349221970748125          1.0000   
         C         C         1.0       0.6097935619158102  0.17954989119465137           0.07846435561906118          1.0000   
         C         C         1.0       0.6237130045452681  0.2027094395486554  0.04309372634939912          1.0000   
         C         C         1.0       0.649928181239046   0.22617824960112135           0.057802979620869  1.0000   
         C         C         1.0       0.665120508897221   0.2288043787431268  0.10274213932602061          1.0000   
         C         C         1.0       0.6761188317206593  0.17911857529882128           0.25735892260327675          1.0000   
         C         C         1.0       0.6694897633039636  0.1702294883112928  0.3113930911341807 1.0000   
         C         C         1.0       0.648777830436775   0.17135626563726522           0.33811009948763476          1.0000   
         C         C         1.0       0.6330623896373551  0.17827510801995672           0.31071580431269746          1.0000   
         C         C         1.0       0.6387160039920766  0.1854592842883892  0.2584069249501665 1.0000   
         C         C         1.0       0.661626347454466   0.18758763961539413           0.23084664818211995          1.0000   
         C         C         1.0       0.6425896939794011  0.16474533448441198           0.40082228575193035          1.0000   
         C         C         1.0       0.5526546794922068  0.11645603138911874           0.4747733531055296 1.0000   
         C         C         1.0       0.5568986354782878  0.11504669877181373           0.4218607969618437 1.0000   
         C         C         1.0       0.5852178326112959  0.13006151842249625           0.4005630311205557 1.0000   
         C         C         1.0       0.6100242542395534  0.1494622231171555  0.42737882348419043          1.0000   
         C         C         1.0       0.6055426602046952  0.15195012525446425           0.4814914970124724 1.0000   
         C         C         1.0       0.5777336630478751  0.13528760002809137           0.5048547196294804 1.0000   
         C         C         1.0       0.6625704617987116  0.1960886604409055  0.4225484625213111 1.0000   
         C         C         1.0       0.6488205914594386  0.20894819203442416           0.42729026817718796          1.0000   
         C         C         1.0       0.6625121980355353  0.23456396963350365           0.45387610952297647          1.0000   
         C         C         1.0       0.6918082746645609  0.24869938054354956           0.46853028019118975          1.0000   
         C         C         1.0       0.7072196147264229  0.23837877267703847           0.4532515010250017 1.0000   
         C         C         1.0       0.6931861719596626  0.21287334163406407           0.4323232640103925 1.0000   
         C         C         1.0       0.6344663219438934  0.11799673785579423           0.38283233941334893          1.0000   
         C         C         1.0       0.6409040203663663  0.10014520595689679           0.3939509089859831 1.0000   
         C         C         1.0       0.6657120596130324  0.10861192075143378           0.42488305878023097          1.0000   
         C         C         1.0       0.6768918988099764  0.13117942086385015           0.45829762977583727          1.0000   
         C         C         1.0       0.6681462202889938  0.1479943439490978  0.45232284951183527          1.0000   
         C         C         1.0       0.6472747087864994  0.1420399592628688  0.4131159930624032 1.0000   
         H         H         1.0       0.718180124070583   0.23160415630316414           0.09036356410586778          1.0000   
         H         H         1.0       0.6554894122039717  0.1494300871599929  0.1518729950019127 1.0000   
         H         H         1.0       0.6729716502100384  0.1333098016327443  0.08875982121139049          1.0000   
         H         H         1.0       0.7333696831448774  0.21517909629601792           0.03168125786831011          1.0000   
         H         H         1.0       0.6183894391887974  0.16436421568239343           0.14485905332040713          1.0000   
         H         H         1.0       0.5910403718383702  0.1590542162004496  0.06539517753758717          1.0000   
         H         H         1.0       0.6615888373627666  0.24082433982015208           0.024271760818340038         1.0000   
         H         H         1.0       0.6873831795944437  0.24598317928163804           0.10552689106134584          1.0000   
         H         H         1.0       0.694579404767789   0.18076057736025516           0.2366414195411143 1.0000   
         H         H         1.0       0.6840654862282196  0.16687482591685204           0.32902369870413267          1.0000   
         H         H         1.0       0.6168765856973781  0.17826311189043864           0.33271965290781014          1.0000   
         H         H         1.0       0.6270314265141879  0.19221744071134472           0.2403133357568453 1.0000   
         H         H         1.0       0.5368039748753478  0.09922572978051324           0.39917981907730543          1.0000   
         H         H         1.0       0.5878604040132702  0.1282403385862818  0.3572117725483262 1.0000   
         H         H         1.0       0.6245302495761634  0.16515604251049876           0.5056690452939859 1.0000   
         H         H         1.0       0.5752584778784177  0.1344321431783848  0.5470745083124069 1.0000   
         H         H         1.0       0.6245885800080803  0.1980079866905754  0.415952589412475  1.0000   
         H         H         1.0       0.6517657118359065  0.24321712557233904           0.46425696233761543          1.0000   
         H         H         1.0       0.7311003240018001  0.24828559172310588           0.4663614336606801 1.0000   
         H         H         1.0       0.7068259252217995  0.2055251017435084  0.42909875600229697          1.0000   
         H         H         1.0       0.6183398801546485  0.1132734365889889  0.3567900676655006 1.0000   
         H         H         1.0       0.6271703959432952  0.08009464809135712           0.37699617086861126          1.0000   
         H         H         1.0       0.6942362184571996  0.1362348442994068  0.486442509376824  1.0000   
         H         H         1.0       0.6791356637860433  0.16667595246731395           0.4772655062411103 1.0000   
         C         C         1.0       0.6886700017437912  0.17696748180566566           0.7182540359899474 1.0000   
         C         C         1.0       0.6789438467801272  0.16963640208416084           0.6665822894002328 1.0000   
         C         C         1.0       0.6597855759087473  0.14121505624816197           0.6547326894104007 1.0000   
         C         C         1.0       0.6523590652472724  0.121297633548467   0.6913724134953938 1.0000   
         C         C         1.0       0.6620578573998159  0.1299758635734025  0.7429981906799362 1.0000   
         C         C         1.0       0.6794406438402343  0.15752570490433968           0.7567929086384234 1.0000   
         H         H         1.0       0.685340918657832   0.18427935365287623           0.6371878205791774 1.0000   
         H         H         1.0       0.6494504872782281  0.13525584472409855           0.6162584341666919 1.0000   
         H         H         1.0       0.6540829386248044  0.11452625093221712           0.7736713863299218 1.0000   
         H         H         1.0       0.6864082253471895  0.16345930517417873           0.7969084050091023 1.0000   
         C         C         1.0       0.6556961884411878  0.07238316099173202           0.7285362660885124 1.0000   
         C         C         1.0       0.6290654238186041  0.06520463754725124           0.7077659227240496 1.0000   
         C         C         1.0       0.6047653593103962  0.036597216160171524         0.7086882526317791 1.0000   
         C         C         1.0       0.6084101371876807  0.016809690130972662         0.7245273886260667 1.0000   
         C         C         1.0       0.6370141948758956  0.025428593630261842         0.7329394618055783 1.0000   
         C         C         1.0       0.6601472399572407  0.0529355394900568  0.7387166929666553 1.0000   
         C         C         1.0       0.6297147294946344  0.08948665672221899           0.677665923892836  1.0000   
         C         C         1.0       0.6352565094309055  0.08303498487819837           0.6200048848914254 1.0000   
         C         C         1.0       0.6125117932248452  0.06424243393649132           0.5841675468359456 1.0000   
         C         C         1.0       0.6173221043594764  0.0577374246737341  0.5344894364066299 1.0000   
         C         C         1.0       0.6465994307439308  0.06849113746390943           0.520500023391853  1.0000   
         C         C         1.0       0.669341812325117   0.08436449686760028           0.5573986457736002 1.0000   
         C         C         1.0       0.6640489939683836  0.09254849590247381           0.6044927115327354 1.0000   
         C         C         1.0       0.5906994893151314  0.08422753003824757           0.7417964281760981 1.0000   
         C         C         1.0       0.5754072163477931  0.09396076759929928           0.7607082850736898 1.0000   
         C         C         1.0       0.5700150719912346  0.10788661179805457           0.723751996257794  1.0000   
         C         C         1.0       0.5721185856560759  0.10378240863419762           0.6694249443489744 1.0000   
         C         C         1.0       0.5876630672258111  0.09462288599318457           0.6523307973627587 1.0000   
         C         C         1.0       0.5998209089402673  0.08664501614472253           0.6894964729465213 1.0000   
         C         C         1.0       0.567922205959461   0.13280758128908363           0.7411215960365897 1.0000   
         C         C         1.0       0.47158117190280674           0.08216005930786706          0.753347880974852  1.0000   
         C         C         1.0       0.48983977777995896           0.08790180480033104          0.7976374020701423 1.0000   
         C         C         1.0       0.519726736927383   0.1022237160078101  0.7954604848668942 1.0000   
         C         C         1.0       0.5335440456580447  0.11531622241901317           0.7466420766950465 1.0000   
         C         C         1.0       0.5160512145003109  0.10993603493969716           0.7026345680419764 1.0000   
         C         C         1.0       0.484510570405851   0.09415167557822857           0.7061303267920049 1.0000   
         C         C         1.0       0.5846001636452149  0.15950725369707672           0.7005308313462628 1.0000   
         C         C         1.0       0.6128492229172928  0.17106923124989565           0.6805324373225164 1.0000   
         C         C         1.0       0.6261376490664712  0.19364944815706972           0.6490972863071051 1.0000   
         C         C         1.0       0.6144916308618945  0.20780539425710728           0.6382696000403361 1.0000   
         C         C         1.0       0.5867320402256737  0.19582266181213473           0.6550300657271461 1.0000   
         C         C         1.0       0.5714345757868176  0.17247139650737695           0.685350879920798  1.0000   
         C         C         1.0       0.5766160181250655  0.16527100234188047           0.8208033050572827 1.0000   
         C         C         1.0       0.5891288605705415  0.17687186673758898           0.8702656753443148 1.0000   
         C         C         1.0       0.6129536675441158  0.17802032932329068           0.8899486055311937 1.0000   
         C         C         1.0       0.6230850291206435  0.16637399678626294           0.8583877746942947 1.0000   
         C         C         1.0       0.6101798493266457  0.15352429093943062           0.8102162376371529 1.0000   
         C         C         1.0       0.5854774475377825  0.15072638337344507           0.7935471080763529 1.0000   
         H         H         1.0       0.6741686897484639  0.0922694059384015  0.7310582261750985 1.0000   
         H         H         1.0       0.5844067585490454  0.030011296577157728         0.6886869411299416 1.0000   
         H         H         1.0       0.5912411203311978  0.9954241241309364  0.716891433594856  1.0000   
         H         H         1.0       0.6820783999482196  0.06094926156344971           0.749152124578369  1.0000   
         H         H         1.0       0.5887077929817297  0.053714917275819556         0.5976335563180983 1.0000   
         H         H         1.0       0.5985837876930995  0.04540413197147064           0.5070696858930889 1.0000   
         H         H         1.0       0.6913311821870081  0.09163324517892678           0.5467323920440242 1.0000   
         H         H         1.0       0.68344434388583    0.10595019980491105           0.6304704699987477 1.0000   
         H         H         1.0       0.5987359460100776  0.07839727019762231           0.7747239720514304 1.0000   
         H         H         1.0       0.5699836972443231  0.09247780227064872           0.8026648816798349 1.0000   
         H         H         1.0       0.565825393578644   0.11165973590912846           0.6376668862452204 1.0000   
         H         H         1.0       0.5940727093574456  0.09742252190435985           0.6102312719444966 1.0000   
         H         H         1.0       0.4779108318591207  0.07759387194197798           0.834555424631262  1.0000   
         H         H         1.0       0.5314500217603697  0.10579291517826771           0.8306143235170557 1.0000   
         H         H         1.0       0.5239276682340026  0.11709327039977578           0.660806895195346  1.0000   
         H         H         1.0       0.4720490073325039  0.09209169774045312           0.6700815353816019 1.0000   
         H         H         1.0       0.6261055088219063  0.16308121749988813           0.6935503402550395 1.0000   
         H         H         1.0       0.6480548711003633  0.2023744878937974  0.6349360656300166 1.0000   
         H         H         1.0       0.5758457237841921  0.2049356755997513  0.6497230652706683 1.0000   
         H         H         1.0       0.551952969500912   0.16792808815484836           0.7045055466906454 1.0000   
         H         H         1.0       0.5556555114643765  0.16167632315349337           0.8074869520273947 1.0000   
         H         H         1.0       0.5797830861090868  0.18359005593997443           0.8973476750364157 1.0000   
         H         H         1.0       0.6397072541864651  0.16481343247156677           0.8755642601584248 1.0000   
         H         H         1.0       0.6192090311581556  0.1452414307085864  0.7829189936230677 1.0000   
         C         C         1.0       0.5807867408398435  0.8439717567735154  0.39231511978377637          1.0000   
         C         C         1.0       0.5813667314438412  0.82622985288307    0.35998027389628634          1.0000   
         C         C         1.0       0.6072036121681988  0.8270583201062579  0.35759053006115216          1.0000   
         C         C         1.0       0.6321520748271724  0.8476693747052519  0.3855060474528808 1.0000   
         C         C         1.0       0.630127096851676   0.8631558476641868  0.4257761010097882 1.0000   
         C         C         1.0       0.6038648880558671  0.8607563241001164  0.42788165896952024          1.0000   
         H         H         1.0       0.5615863878211778  0.8127159635495207  0.3332057899905705 1.0000   
         H         H         1.0       0.6067327663164603  0.8118530641213233  0.33107101295216557          1.0000   
         H         H         1.0       0.6496709087481061  0.8791813830134487  0.45126459936168617          1.0000   
         H         H         1.0       0.6024569541165824  0.8727104630364304  0.45976226936130393          1.0000   
         C         C         1.0       0.6733140504125266  0.901898833640398   0.32870398499571485          1.0000   
         C         C         1.0       0.6865167523215522  0.8897928592952573  0.3515896349071133 1.0000   
         C         C         1.0       0.7166733554899676  0.9072452151523148  0.3568266510040453 1.0000   
         C         C         1.0       0.7334577959786143  0.9353666062877668  0.34544493906484386          1.0000   
         C         C         1.0       0.7205428073337347  0.9450629031281049  0.3196478909137903 1.0000   
         C         C         1.0       0.6898780977304496  0.9275174974223966  0.3093911991115048 1.0000   
         C         C         1.0       0.6646065487836812  0.8568015154742202  0.3634061235162882 1.0000   
         C         C         1.0       0.6656071725399313  0.8445172811122064  0.3044081807035434 1.0000   
         C         C         1.0       0.685200554583963   0.837160496612688   0.2966784818729262 1.0000   
         C         C         1.0       0.6870504308841041  0.8274106752166119  0.24732973840559577          1.0000   
         C         C         1.0       0.6719138566189601  0.8273269586263697  0.20500761296757586          1.0000   
         C         C         1.0       0.6531482804955945  0.835236049378944   0.21311492066773957          1.0000   
         C         C         1.0       0.6503107020756967  0.8436991780541265  0.2632634343918189 1.0000   
         C         C         1.0       0.6919096494586817  0.862014627603549   0.4534800493350238 1.0000   
         C         C         1.0       0.692702477516614   0.8501502670704191  0.5002858015094774 1.0000   
         C         C         1.0       0.6717059235572451  0.821684676153644   0.5100210657360686 1.0000   
         C         C         1.0       0.655438848690351   0.8051648649983509  0.4649503775072374 1.0000   
         C         C         1.0       0.6569522150892018  0.8168657411944885  0.4174195877082981 1.0000   
         C         C         1.0       0.6733900756421242  0.8457990326204256  0.41257258854458284          1.0000   
         C         C         1.0       0.6630483641342058  0.8094697152888536  0.5715933025174257 1.0000   
         C         C         1.0       0.7297109556038145  0.8180831104705628  0.6754718965278665 1.0000   
         C         C         1.0       0.7060013033748147  0.8160868982202536  0.6991009679865678 1.0000   
         C         C         1.0       0.686158173724346   0.8156607243042047  0.6652089339446848 1.0000   
         C         C         1.0       0.6904123241461739  0.818654032920056   0.6089957900129681 1.0000   
         C         C         1.0       0.7160770423702587  0.8227702466156601  0.5882740019928147 1.0000   
         C         C         1.0       0.7358648212777793  0.823106667436998   0.6215160382233516 1.0000   
         C         C         1.0       0.6400745171322962  0.7753179241075813  0.5772210769599098 1.0000   
         C         C         1.0       0.6177535089048405  0.7636793082885928  0.6186042078436634 1.0000   
         C         C         1.0       0.6012381269396128  0.7360700140078107  0.6306750313559735 1.0000   
         C         C         1.0       0.6070988535223663  0.7188879152500022  0.6039375088939686 1.0000   
         C         C         1.0       0.6292060071773992  0.730756918283354   0.5653883636950167 1.0000   
         C         C         1.0       0.6453771428455916  0.7584684828052347  0.552240900303022  1.0000   
         C         C         1.0       0.6598018021364598  0.8479653427812579  0.617626724944103  1.0000   
         C         C         1.0       0.6453822205533725  0.8591389478928454  0.6302827692323764 1.0000   
         C         C         1.0       0.6195034877071989  0.8506670090028072  0.6013479899979657 1.0000   
         C         C         1.0       0.6057442477375254  0.826566830127801   0.5733488810190779 1.0000   
         C         C         1.0       0.6186010600516652  0.8133385036537124  0.5668341457607255 1.0000   
         C         C         1.0       0.6468069614420041  0.8238552540151167  0.5882919506454796 1.0000   
         H         H         1.0       0.6500272560579857  0.8895472445496692  0.3253777542048173 1.0000   
         H         H         1.0       0.7285724630649487  0.8989628319340318  0.3690978119109083 1.0000   
         H         H         1.0       0.7562710559102916  0.9480710903285476  0.3601779237621065 1.0000   
         H         H         1.0       0.680268887836192   0.9351664852484248  0.2894368478681252 1.0000   
         H         H         1.0       0.6971241275108825  0.8371502134120493  0.3276965137026987 1.0000   
         H         H         1.0       0.7022764336102896  0.8216153765364342  0.2443854742659701 1.0000   
         H         H         1.0       0.6407538509361144  0.8330572535065724  0.18128069269321503          1.0000   
         H         H         1.0       0.6344338057705948  0.848503345617368   0.26719375826347974          1.0000   
         H         H         1.0       0.7040741186032197  0.8849973137589983  0.44715244073095617          1.0000   
         H         H         1.0       0.7072787467786302  0.8648344033455946  0.533151424343327  1.0000   
         H         H         1.0       0.638960126173754   0.7820517092928563  0.4720788823317425 1.0000   
         H         H         1.0       0.6408458373129855  0.8035937355840121  0.3862596990004103 1.0000   
         H         H         1.0       0.6996212789826443  0.8123336483087538  0.743266061756515  1.0000   
         H         H         1.0       0.6651327785310577  0.8087799863485293  0.6829424734725564 1.0000   
         H         H         1.0       0.7188217049075679  0.8243565452216972  0.5472422980687072 1.0000   
         H         H         1.0       0.7555323212335983  0.8258831997405855  0.6039381501509246 1.0000   
         H         H         1.0       0.6144002021396332  0.7770247848712243  0.6410717945665095 1.0000   
         H         H         1.0       0.5850910687931543  0.7276802741887344  0.6630337017893689 1.0000   
         H         H         1.0       0.6344988900965987  0.7168832509526125  0.5505595686623351 1.0000   
         H         H         1.0       0.666377942910025   0.7692166124771966  0.5303890399773549 1.0000   
         H         H         1.0       0.6824201244093911  0.8576767903425979  0.6332760530622269 1.0000   
         H         H         1.0       0.6558027562435779  0.8756082159970818  0.6601452209550015 1.0000   
         H         H         1.0       0.5888930194903091  0.8223773524118417  0.546079505479513  1.0000   
         H         H         1.0       0.6102724629311509  0.7969752827525503  0.5376182007036894 1.0000   
         C         C         1.0       0.5813581364893984  0.9257036715905066  0.9225277215952333 1.0000   
         C         C         1.0       0.5727930974185621  0.904977272473756   0.8856918401225753 1.0000   
         C         C         1.0       0.5933464110457871  0.9056991047331013  0.8563104987793705 1.0000   
         C         C         1.0       0.6236781382184032  0.9287415973947571  0.8573382957211193 1.0000   
         C         C         1.0       0.6320301068461912  0.9489175107211045  0.8921757853445721 1.0000   
         C         C         1.0       0.612029472995875   0.9470872179067871  0.9277102249766007 1.0000   
         H         H         1.0       0.5490768131821311  0.889737092203531   0.8732755020933415 1.0000   
         H         H         1.0       0.5867532744975665  0.8901535093233365  0.8274158815482332 1.0000   
         H         H         1.0       0.6567213588338708  0.966562406803286   0.8947670064246066 1.0000   
         H         H         1.0       0.6208852486117069  0.9637281073228595  0.95771835808846   1.0000   
         C         C         1.0       0.6886186642980959  0.9835041078444573  0.807510574306674  1.0000   
         C         C         1.0       0.6815289431963759  0.957974279468622   0.8237564855103768 1.0000   
         C         C         1.0       0.7065372173713675  0.9580806160346392  0.832016862552026  1.0000   
         C         C         1.0       0.7349782908179259  0.9822158937162522  0.829793354698876  1.0000   
         C         C         1.0       0.7395525730002401  0.006772294033389192         0.8163518736746228 1.0000   
         C         C         1.0       0.7161383480581184  0.008060826340275495         0.8050199566297962 1.0000   
         C         C         1.0       0.6468306412564709  0.928789684906704   0.8221082627854962 1.0000   
         C         C         1.0       0.6436170390383738  0.9266825209454795  0.7585360669432141 1.0000   
         C         C         1.0       0.6641316835254062  0.9261605427174013  0.7246667420146953 1.0000   
         C         C         1.0       0.6580022216719733  0.9197771792226028  0.6710545520835136 1.0000   
         C         C         1.0       0.6309628589839187  0.9111859363013065  0.6515803714107865 1.0000   
         C         C         1.0       0.612526529080073   0.9133399442554067  0.6806649931121964 1.0000   
         C         C         1.0       0.6189008607926986  0.9216392783637284  0.7326491371430836 1.0000   
         C         C         1.0       0.6557404655764443  0.9049917231499428  0.8943301525150158 1.0000   
         C         C         1.0       0.6569543607016726  0.8837560565410677  0.9172865546379897 1.0000   
         C         C         1.0       0.6491823785361394  0.8613412940554422  0.8842593328673368 1.0000   
         C         C         1.0       0.6361774440291338  0.8593821395329013  0.8337124645383163 1.0000   
         C         C         1.0       0.632893041631674   0.8783191000889092  0.8149085548132909 1.0000   
         C         C         1.0       0.6454721558916486  0.903005925796681   0.8442694592081139 1.0000   
         C         C         1.0       0.6643143586264036  0.8452861033652245  0.8910295438799308 1.0000   
         C         C         1.0       0.7491563588334318  0.9145097337248452  0.8160162495984513 1.0000   
         C         C         1.0       0.7440932710560174  0.9147501041920874  0.8709741994962911 1.0000   
         C         C         1.0       0.7193213937020111  0.8925525250005053  0.8937928528127072 1.0000   
         C         C         1.0       0.6961215548498106  0.8689691207218087  0.8656012025151943 1.0000   
         C         C         1.0       0.7015030546673804  0.8698557800643967  0.8125869625419886 1.0000   
         C         C         1.0       0.7283122429406419  0.8911096524544113  0.7876155709044651 1.0000   
         C         C         1.0       0.6455018355936305  0.8148668316594749  0.8710197997695646 1.0000   
         C         C         1.0       0.6151727842739021  0.7988022726625646  0.8828192841968526 1.0000   
         C         C         1.0       0.5964247519037783  0.7708545092275243  0.8705712652377494 1.0000   
         C         C         1.0       0.6076054227731622  0.7606330861620139  0.835677423297627  1.0000   
         C         C         1.0       0.6383299183698361  0.778728985939848   0.8183791488030664 1.0000   
         C         C         1.0       0.6556502045246423  0.8035535636906052  0.8406714583504392 1.0000   
         C         C         1.0       0.6916958316711337  0.83558722637178    0.9642697716845436 1.0000   
         C         C         1.0       0.6982034114363769  0.8339413751126373  0.016107677790814234         1.0000   
         C         C         1.0       0.6844986390092613  0.836930067258595   0.057950552650701814         1.0000   
         C         C         1.0       0.6606539991374472  0.8376599255809425  0.04587210198371339          1.0000   
         C         C         1.0       0.6530375488527967  0.8377227088509501  0.9936788894131389 1.0000   
         C         C         1.0       0.6702148301753416  0.8388064856376172  0.9513914698794551 1.0000   
         H         H         1.0       0.6696667747499147  0.9834114169419467  0.8009696994897534 1.0000   
         H         H         1.0       0.7041690796022256  0.9389207216058211  0.8340267447910098 1.0000   
         H         H         1.0       0.7527645802429057  0.9822736653256723  0.8441955106889728 1.0000   
         H         H         1.0       0.7210942315828308  0.02761416748427492           0.7895769642970373 1.0000   
         H         H         1.0       0.681306103367838   0.9270758194480897  0.7457762929909184 1.0000   
         H         H         1.0       0.673786865986489   0.9192079490198686  0.6433053017358537 1.0000   
         H         H         1.0       0.589662587346021   0.9036652210213435  0.6646105897001867 1.0000   
         H         H         1.0       0.6027525186614248  0.9204681245773775  0.7568749410764626 1.0000   
         H         H         1.0       0.6660029917850947  0.923609307574334   0.919622424775902  1.0000   
         H         H         1.0       0.6659338719387576  0.8855417504528358  0.9572257837930876 1.0000   
         H         H         1.0       0.6350462573601685  0.8447856254682733  0.8061574301205016 1.0000   
         H         H         1.0       0.6247354212385388  0.8755163009725538  0.7764569040962384 1.0000   
         H         H         1.0       0.7612363167915156  0.9323655199801782  0.8958225092573738 1.0000   
         H         H         1.0       0.716207252609533   0.8928843310286753  0.9368136386817558 1.0000   
         H         H         1.0       0.6863353464190285  0.8521290400926907  0.7870020778473567 1.0000   
         H         H         1.0       0.7341881659470598  0.8906771760397959  0.7455775030507928 1.0000   
         H         H         1.0       0.6071810314343187  0.8079378741611996  0.9065069183355894 1.0000   
         H         H         1.0       0.5739961432856044  0.758025765148806   0.8819968238844375 1.0000   
         H         H         1.0       0.6459896515083418  0.7701338058022881  0.7919736338486365 1.0000   
         H         H         1.0       0.6796930516585385  0.8148628625463535  0.830660590426439  1.0000   
         H         H         1.0       0.702474285780293   0.8317221650966954  0.934186403812217  1.0000   
         H         H         1.0       0.7147623477413794  0.8307131383564091  0.022303746061224098         1.0000   
         H         H         1.0       0.6465971223199389  0.8366509588600431  0.07730080533352446          1.0000   
         H         H         1.0       0.6337136231472866  0.8372991877229187  0.986708030718459  1.0000   
         C         C         1.0       0.9290788494636222  0.06642191997261793           0.22900448086201886          1.0000   
         C         C         1.0       0.929102944913302   0.04419467776320385           0.2406989725951863 1.0000   
         C         C         1.0       0.9056497259694173  0.018480828493208756         0.22570511586897588          1.0000   
         C         C         1.0       0.881290067360015   0.012919062882296606         0.20032083241198326          1.0000   
         C         C         1.0       0.8841089602999688  0.03595999440431186           0.18012026448915652          1.0000   
         C         C         1.0       0.9064999225980388  0.06240361422153007           0.1979058413084908 1.0000   
         H         H         1.0       0.9435612489868362  0.046927704451721786         0.2727804794519844 1.0000   
         H         H         1.0       0.9034949499928674  0.00028123411564195955       0.23870584337581893          1.0000   
         H         H         1.0       0.8693007694670215  0.03460377287475991           0.150305428078593  1.0000   
         H         H         1.0       0.9070250028926042  0.07889182062361755           0.18218485257035558          1.0000   
         C         C         1.0       0.8254859484833325  0.0026959532359762672        0.24377538671721674          1.0000   
         C         C         1.0       0.8229218439809636  0.9867469581418555  0.20053285901469697          1.0000   
         C         C         1.0       0.7948482862323172  0.9701376868047484  0.17773660896424792          1.0000   
         C         C         1.0       0.7713992975654187  0.968740163676809   0.19570609839257938          1.0000   
         C         C         1.0       0.7746235933322465  0.9863931888229738  0.23721570250717522          1.0000   
         C         C         1.0       0.8018679481007097  0.0022012769810524357        0.2619843332575141 1.0000   
         C         C         1.0       0.8495435637539845  0.983913384335578   0.1892026622574378 1.0000   
         C         C         1.0       0.8425003576233624  0.9606031263945065  0.23023580888871545          1.0000   
         C         C         1.0       0.8182229382861516  0.9329121060404882  0.2160688620855356 1.0000   
         C         C         1.0       0.8054721366860795  0.9100032699730058  0.25180991652476054          1.0000   
         C         C         1.0       0.8155546008739082  0.9161961580013521  0.3039306259626949 1.0000   
         C         C         1.0       0.837922686925637   0.9431683885926256  0.3188370402635286 1.0000   
         C         C         1.0       0.8494046577100863  0.9647004230923227  0.2838490018254221 1.0000   
         C         C         1.0       0.8436313568779685  0.979171812197406   0.08473891546956082          1.0000   
         C         C         1.0       0.8512169232479306  0.9745422556554487  0.03472293107087876          1.0000   
         C         C         1.0       0.8718573812073225  0.9697144752300946  0.027255637324835602         1.0000   
         C         C         1.0       0.8831753751721049  0.9664511630834046  0.07412895764856754          1.0000   
         C         C         1.0       0.8745339962885329  0.9689144638479547  0.12437131165759664          1.0000   
         C         C         1.0       0.8552308818073092  0.9768351573468549  0.13014194704605456          1.0000   
         C         C         1.0       0.8838369451174878  0.9684041475983586  0.9696259380583067 1.0000   
         C         C         1.0       0.8193395636448948  0.9356793299316977  0.8435338960348947 1.0000   
         C         C         1.0       0.8497395064935551  0.9539231861176465  0.8326485783392437 1.0000   
         C         C         1.0       0.8704386376483548  0.961768533668736   0.8719235354995535 1.0000   
         C         C         1.0       0.8605499612693936  0.9530740191170917  0.9246108737363425 1.0000   
         C         C         1.0       0.8303139901863836  0.9327375948827163  0.9361528932114197 1.0000   
         C         C         1.0       0.8100199432864241  0.9249241662832217  0.893564903046798  1.0000   
         C         C         1.0       0.8956681807539967  0.9492259608633656  0.969436018413828  1.0000   
         C         C         1.0       0.9231252501374831  0.9585999696047048  0.9432276243305426 1.0000   
         C         C         1.0       0.9341618104303462  0.9428896616892497  0.9504151065902009 1.0000   
         C         C         1.0       0.9176020383066081  0.9183291604920679  0.9780544564320423 1.0000   
         C         C         1.0       0.8882442257400596  0.9073657919086053  0.9937362795698028 1.0000   
         C         C         1.0       0.8770879233191545  0.9214579687389308  0.98595239981431   1.0000   
         C         C         1.0       0.8955123548871248  0.016189683172454394         0.946427843869188  1.0000   
         C         C         1.0       0.9159505457388067  0.044184113733768404         0.9346500346600644 1.0000   
         C         C         1.0       0.9456008149980305  0.0579542302115863  0.9382367131352979 1.0000   
         C         C         1.0       0.9553260909780156  0.043769745634148816         0.9560763558092119 1.0000   
         C         C         1.0       0.9369243507865875  0.016795418612772783         0.9696861654730613 1.0000   
         C         C         1.0       0.9064683842308217  0.0004296954664586572        0.9590919183550549 1.0000   
         H         H         1.0       0.8453192749029589  0.013988734548989301         0.2710118652358998 1.0000   
         H         H         1.0       0.7907336386628323  0.9549552789768645  0.14905305918070016          1.0000   
         H         H         1.0       0.7487524033005135  0.9532918767086999  0.17840537398293105          1.0000   
         H         H         1.0       0.8057780732244189  0.016028135122340137         0.2970790221128068 1.0000   
         H         H         1.0       0.8111607680208027  0.9313281356882401  0.17579227538405148          1.0000   
         H         H         1.0       0.7870068107817288  0.8914299576555232  0.23585208157915968          1.0000   
         H         H         1.0       0.8460968761693543  0.9482158715536175  0.3577689819550919 1.0000   
         H         H         1.0       0.8673261351722317  0.9853149619844576  0.2981880586264818 1.0000   
         H         H         1.0       0.826678837309884   0.9822459158739015  0.08090870301969333          1.0000   
         H         H         1.0       0.8396342704248801  0.9757564461269589  0.0035656092151377106        1.0000   
         H         H         1.0       0.9006598093268977  0.9630658903361775  0.07280488191543745          1.0000   
         H         H         1.0       0.8857047220429449  0.9688877324000087  0.1578842797907516 1.0000   
         H         H         1.0       0.8529911666516712  0.9582576000104838  0.7897952034856865 1.0000   
         H         H         1.0       0.8934673678080569  0.9769319401108583  0.8646310842664121 1.0000   
         H         H         1.0       0.8226804224091937  0.9232141181957869  0.9738109086529517 1.0000   
         H         H         1.0       0.7876843365568295  0.909382564904371   0.9071827699558586 1.0000   
         H         H         1.0       0.9388704622381943  0.9773559871109706  0.919520079109924  1.0000   
         H         H         1.0       0.95694163127419    0.9546898262779382  0.946087946298292  1.0000   
         H         H         1.0       0.8740523740432778  0.8870598909752512  0.007834905828131511         1.0000   
         H         H         1.0       0.8532288254364535  0.9094931151381734  0.0007531312629527331        1.0000   
         H         H         1.0       0.8719668959841196  0.007391831610488397         0.9479030480484961 1.0000   
         H         H         1.0       0.9064551307531336  0.05534056063959336           0.9242214680048828 1.0000   
         H         H         1.0       0.9786574725231211  0.05246003970964219           0.9530974249887036 1.0000   
         H         H         1.0       0.9462434619376163  0.00884700073711131           0.9916066959013881 1.0000   
         C         C         1.0       0.9297113196236817  0.09442344430900662           0.537799516777731  1.0000   
         C         C         1.0       0.9440134245080393  0.0871084680935188  0.5672751117023089 1.0000   
         C         C         1.0       0.9318552202994657  0.07192484148325229           0.6135312050988415 1.0000   
         C         C         1.0       0.90416250092905    0.06246246442839687           0.6301989161980283 1.0000   
         C         C         1.0       0.888941126475793   0.06932704210792862           0.5970705418432816 1.0000   
         C         C         1.0       0.9014809644946531  0.08387946857757367           0.5501893413984219 1.0000   
         H         H         1.0       0.9663343057048615  0.09435587335761264           0.5545843364682052 1.0000   
         H         H         1.0       0.9426114941118928  0.06413846283329905           0.6321042182122173 1.0000   
         H         H         1.0       0.8648079724160828  0.05862796691603478           0.6046854785394612 1.0000   
         H         H         1.0       0.8864277023715224  0.08652240766935648           0.524632245582848  1.0000   
         C         C         1.0       0.8623431989651749  0.06812622385761036           0.7095388087278013 1.0000   
         C         C         1.0       0.8621544695435104  0.04490267365117773           0.7147484153134378 1.0000   
         C         C         1.0       0.839461041579109   0.022179183618556975         0.7432445325351    1.0000   
         C         C         1.0       0.8153961710742647  0.02073456897040815           0.7593791523634436 1.0000   
         C         C         1.0       0.8156074719453021  0.0442453628352224  0.7513469338490261 1.0000   
         C         C         1.0       0.8387973737672719  0.06711577892909482           0.7246793154979372 1.0000   
         C         C         1.0       0.8870540256475937  0.04335146130224454           0.6825729876244835 1.0000   
         C         C         1.0       0.911383157057999   0.05649417470019724           0.7290301282028468 1.0000   
         C         C         1.0       0.9094204889361498  0.03831405140300892           0.7653076117022816 1.0000   
         C         C         1.0       0.9296720081255601  0.0476122288829135  0.8089005078311976 1.0000   
         C         C         1.0       0.952244894721431   0.07469902843964271           0.8156851977159489 1.0000   
         C         C         1.0       0.9523746136711548  0.09329583610982595           0.785208321749393  1.0000   
         C         C         1.0       0.9325177438606344  0.08438334028898287           0.7415310327849486 1.0000   
         C         C         1.0       0.8481171483208317  0.00018740961808139112       0.6297900594176061 1.0000   
         C         C         1.0       0.8355160156405557  0.9743070786718455  0.607421875240019  1.0000   
         C         C         1.0       0.8493084865383249  0.9616038250835277  0.6054553808827342 1.0000   
         C         C         1.0       0.8767427613508461  0.9763712557187635  0.6321357993785975 1.0000   
         C         C         1.0       0.8903555484606588  0.0031661815070329613        0.6530856439487762 1.0000   
         C         C         1.0       0.8757674556676999  0.014746010259625075         0.6520918936301809 1.0000   
         C         C         1.0       0.8339299385786303  0.9313428420384173  0.5823816000406433 1.0000   
         C         C         1.0       0.789002595501735   0.8720133566941611  0.7128154246595263 1.0000   
         C         C         1.0       0.7754605809133558  0.8823150288706874  0.6905560748703226 1.0000   
         C         C         1.0       0.7890835242774357  0.9017027816853209  0.6490658730304975 1.0000   
         C         C         1.0       0.8193579849663191  0.913931152698307   0.636509052744555  1.0000   
         C         C         1.0       0.8349269613114387  0.908886201528947   0.6688000028612502 1.0000   
         C         C         1.0       0.8200331669852712  0.8865286695283774  0.7027832544219111 1.0000   
         C         C         1.0       0.8566567870527436  0.9273016305609945  0.5535865479121119 1.0000   
         C         C         1.0       0.8789773522438415  0.9484473655846691  0.5201371569604414 1.0000   
         C         C         1.0       0.8980338060316573  0.9442890946500813  0.4919743031163186 1.0000   
         C         C         1.0       0.8915275800944841  0.9182913538526511  0.48781145486755845          1.0000   
         C         C         1.0       0.8699597607797073  0.8976529012808225  0.5211284582420906 1.0000   
         C         C         1.0       0.8528655899345495  0.9022924465141893  0.5534556388729913 1.0000   
         C         C         1.0       0.792968476077311   0.8927251373206623  0.5203779716134794 1.0000   
         C         C         1.0       0.779027920915592   0.884277804964281   0.4727177079329553 1.0000   
         C         C         1.0       0.7866457700763462  0.9036269361041787  0.43371031024607143          1.0000   
         C         C         1.0       0.8030245012174881  0.9316333711853535  0.44447723860831617          1.0000   
         C         C         1.0       0.8139745005005172  0.9404146713013126  0.4933050695056143 1.0000   
         C         C         1.0       0.8111268296271656  0.9217268838669203  0.5330543748439075 1.0000   
         H         H         1.0       0.878128517864857   0.08608597134754326           0.6864096290632424 1.0000   
         H         H         1.0       0.8385516063487186  0.0035500529225978017        0.7448516676150075 1.0000   
         H         H         1.0       0.7971286017490947  0.0021443603468793704        0.7769974225011905 1.0000   
         H         H         1.0       0.8376049541403509  0.08360880814142213           0.7112236569565907 1.0000   
         H         H         1.0       0.8924282306205764  0.015381714120714651         0.7599338006785727 1.0000   
         H         H         1.0       0.9294312834219101  0.03487975641415897           0.8385040030271996 1.0000   
         H         H         1.0       0.9725293100026603  0.11502127784580773           0.785326048130822  1.0000   
         H         H         1.0       0.9316989087824958  0.09994031814611537           0.7201040937283661 1.0000   
         H         H         1.0       0.836825150919442   0.009575439365285598         0.630775382542117  1.0000   
         H         H         1.0       0.8127063591510024  0.9646407663509675  0.5917948263174332 1.0000   
         H         H         1.0       0.888652625966221   0.9672586493138279  0.6363642406174745 1.0000   
         H         H         1.0       0.9113423381713066  0.012864915406327615         0.6743198026199505 1.0000   
         H         H         1.0       0.7528883868300127  0.8741542154985048  0.6986166344120516 1.0000   
         H         H         1.0       0.7764155423529204  0.9064008511591216  0.6298969304738845 1.0000   
         H         H         1.0       0.8570700047050834  0.9152654994889663  0.6576819104667818 1.0000   
         H         H         1.0       0.8326693479341555  0.8788243405803446  0.7139957031874868 1.0000   
         H         H         1.0       0.8815624886652366  0.9678756774137768  0.5175368727682073 1.0000   
         H         H         1.0       0.9130888900259485  0.960620286044427   0.46520806629452893          1.0000   
         H         H         1.0       0.8630901927336394  0.87591685218757    0.519728712280224  1.0000   
         H         H         1.0       0.8335425704106023  0.8834445587236531  0.5704304920282108 1.0000   
         H         H         1.0       0.7899956616428134  0.8778461757159801  0.5478696062043535 1.0000   
         H         H         1.0       0.7703895348921879  0.8628855832270758  0.46369546848822735          1.0000   
         H         H         1.0       0.8089950412964452  0.9469085475507009  0.4120432571820536 1.0000   
         H         H         1.0       0.8295008856410082  0.9630319506942002  0.5017999729033793 1.0000   
         C         C         1.0       0.5502206735883527  0.5812465254440665  0.6684186691922089 1.0000   
         C         C         1.0       0.5736846233361242  0.5968801846547592  0.704938442839105  1.0000   
         C         C         1.0       0.594007534525942   0.5911104353286347  0.7127921262445741 1.0000   
         C         C         1.0       0.5900192272873748  0.5683629289600061  0.6840178619999198 1.0000   
         C         C         1.0       0.5675371902100147  0.5541973751643627  0.6469745852325163 1.0000   
         C         C         1.0       0.5490516596664151  0.56129194956803    0.6390388492313471 1.0000   
         H         H         1.0       0.5777497367398453  0.6151510434680191  0.7253918780328381 1.0000   
         H         H         1.0       0.6122488972789333  0.6024787578932166  0.742642342146737  1.0000   
         H         H         1.0       0.5649352298142303  0.5360954813417992  0.6261406437299726 1.0000   
         H         H         1.0       0.5342120044557771  0.5500540843946334  0.6081897515533516 1.0000   
         C         C         1.0       0.5722596769063347  0.5063776586441765  0.6935376712556528 1.0000   
         C         C         1.0       0.6007067120538614  0.529065227031966   0.6787068073168204 1.0000   
         C         C         1.0       0.6198167089661767  0.5229637184420333  0.6601203502720356 1.0000   
         C         C         1.0       0.611692064552204   0.4970087146717161  0.6574008946376823 1.0000   
         C         C         1.0       0.5855363761134691  0.47557668621148663           0.678398385784022  1.0000   
         C         C         1.0       0.5648624204554121  0.4801706448216558  0.6950939933904746 1.0000   
         C         C         1.0       0.6121773884573422  0.559945994658259   0.6900117668744365 1.0000   
         C         C         1.0       0.6210375644403764  0.5602421635690277  0.7508694656847243 1.0000   
         C         C         1.0       0.6488001314669815  0.5679058225732669  0.7663690491516024 1.0000   
         C         C         1.0       0.6562297200384065  0.5695787701460272  0.8217885069534244 1.0000   
         C         C         1.0       0.6337689620034264  0.5575148600682354  0.8606983815283572 1.0000   
         C         C         1.0       0.605778409067458   0.5472425121324016  0.8431994729722397 1.0000   
         C         C         1.0       0.598905296346727   0.5476339416935009  0.790512577491132  1.0000   
         C         C         1.0       0.6379040064966958  0.5823626224223674  0.6000011215229727 1.0000   
         C         C         1.0       0.6562116844164955  0.6044244951402812  0.5686664126530673 1.0000   
         C         C         1.0       0.677041078685007   0.6308695628888141  0.5903449467932236 1.0000   
         C         C         1.0       0.6807904823128154  0.6325765105259357  0.6467263049143077 1.0000   
         C         C         1.0       0.6609194963401794  0.6093200283270912  0.6775855005557725 1.0000   
         C         C         1.0       0.6379588157782432  0.5839481909427972  0.6543973157392411 1.0000   
         C         C         1.0       0.6899866204423575  0.6582529545299846  0.5565719145902108 1.0000   
         C         C         1.0       0.7857340549126538  0.7148348697257947  0.5392499732297892 1.0000   
         C         C         1.0       0.7734709704037728  0.6903407345134827  0.5661638136994868 1.0000   
         C         C         1.0       0.7435682935956299  0.6729893687048969  0.57324386150065   1.0000   
         C         C         1.0       0.7257219034325768  0.6808824809308237  0.5599082511067874 1.0000   
         C         C         1.0       0.7388814792087784  0.7063534806072953  0.5345587285542122 1.0000   
         C         C         1.0       0.7678574978374376  0.722818500471699   0.5261210166488194 1.0000   
         C         C         1.0       0.6726458231018926  0.6691973216537647  0.5858413170360995 1.0000   
         C         C         1.0       0.6416832950949235  0.6513639366493389  0.5828209561399679 1.0000   
         C         C         1.0       0.6243942234155623  0.6570759429955265  0.6073451011521899 1.0000   
         C         C         1.0       0.636685998002638   0.6818742996531846  0.6335408862128638 1.0000   
         C         C         1.0       0.6668437148773619  0.698310851546508   0.646417883017523  1.0000   
         C         C         1.0       0.684977684237705   0.6923478404421751  0.6199883401909413 1.0000   
         C         C         1.0       0.6960082668717331  0.6424808567651171  0.46301532676694074          1.0000   
         C         C         1.0       0.6969304749209084  0.6431695308286662  0.4063962339749556 1.0000   
         C         C         1.0       0.6886256416028583  0.6575593555811755  0.38061806824506667          1.0000   
         C         C         1.0       0.6744359232027894  0.6657646045257204  0.4104371355608795 1.0000   
         C         C         1.0       0.6711478601516182  0.6629152210854535  0.4653494019886942 1.0000   
         C         C         1.0       0.682732085380216   0.6520304312345014  0.4931811225501454 1.0000   
         H         H         1.0       0.5577656596029326  0.5092707456151452  0.7127925725320012 1.0000   
         H         H         1.0       0.6419585781109146  0.5401242867764965  0.6488928304576852 1.0000   
         H         H         1.0       0.6289451529849681  0.4950318403760791  0.6455961820388054 1.0000   
         H         H         1.0       0.54414291029971    0.4631583282850227  0.7167695187210433 1.0000   
         H         H         1.0       0.666232450979971   0.5744492797539789  0.7390348205065265 1.0000   
         H         H         1.0       0.6770549983237092  0.5754463205892111  0.8292934160539183 1.0000   
         H         H         1.0       0.5872662310789779  0.5354978137484221  0.871702914479734  1.0000   
         H         H         1.0       0.5769519804548341  0.5399093874024257  0.7814056257651671 1.0000   
         H         H         1.0       0.6176343822309767  0.5638824347912758  0.5818558681499265 1.0000   
         H         H         1.0       0.6492079133212243  0.5994329973445063  0.5274450938300691 1.0000   
         H         H         1.0       0.6950566822477837  0.6526929625776378  0.6648958415019804 1.0000   
         H         H         1.0       0.6606290561114966  0.6103946887517171  0.7196287837785567 1.0000   
         H         H         1.0       0.7857469207046854  0.6825430717668646  0.57580199627794   1.0000   
         H         H         1.0       0.7344032199309919  0.6528342303766468  0.5863755494787416 1.0000   
         H         H         1.0       0.7273597653176996  0.7131955739870894  0.5181709962329917 1.0000   
         H         H         1.0       0.7765209500440293  0.7411348806487447  0.5036298460312849 1.0000   
         H         H         1.0       0.6305695315902434  0.6325687450660387  0.5627091566127232 1.0000   
         H         H         1.0       0.6005694468757083  0.6434504780695346  0.6008244863699082 1.0000   
         H         H         1.0       0.6787226685369719  0.7169888554920458  0.6725896415613407 1.0000   
         H         H         1.0       0.710349690678988   0.7064731307429476  0.6244748693888471 1.0000   
         H         H         1.0       0.7084148017942723  0.6370263466503782  0.48464373352095447          1.0000   
         H         H         1.0       0.7039162964293606  0.6338116324213616  0.37956089275030763          1.0000   
         H         H         1.0       0.6683870199539542  0.6781440029932321  0.392563830355938  1.0000   
         H         H         1.0       0.6617125927292682  0.6725791215616981  0.4867302122120694 1.0000   
         C         C         1.0       0.621090790300422   0.7409609166059822  0.09053644349323875          1.0000   
         C         C         1.0       0.6507359536796726  0.7540317402409523  0.09443199156033177          1.0000   
         C         C         1.0       0.6601992581266315  0.7384236129760081  0.11072601162853868          1.0000   
         C         C         1.0       0.6405609602526892  0.7104393191965723  0.12659937240057362          1.0000   
         C         C         1.0       0.6105081672502906  0.6991500906434419  0.12381260384724135          1.0000   
         C         C         1.0       0.6010342162856087  0.7141411569477256  0.10715664515445966          1.0000   
         H         H         1.0       0.6669330855280441  0.7761382018888152  0.08694047729046295          1.0000   
         H         H         1.0       0.6851594681598093  0.7499025526550986  0.10132718088614401          1.0000   
         H         H         1.0       0.5944606956890023  0.6766590623471883  0.12904480996934087          1.0000   
         H         H         1.0       0.5782620396978898  0.7056401801278978  0.10331568583263007          1.0000   
         C         C         1.0       0.6117759796632084  0.6543919931496879  0.1882951256316414 1.0000   
         C         C         1.0       0.6319776202330544  0.6627245865199611  0.14652761110679435          1.0000   
         C         C         1.0       0.6341590367033086  0.6424665617926797  0.12439486198454941          1.0000   
         C         C         1.0       0.6161937749496331  0.615677091352568   0.14134234893338493          1.0000   
         C         C         1.0       0.5984617992204255  0.6091046543366877  0.18453480887633766          1.0000   
         C         C         1.0       0.5944104683228714  0.6278083559342138  0.20636482952644464          1.0000   
         C         C         1.0       0.6551761474403889  0.6941504601810453  0.12858772898053217          1.0000   
         C         C         1.0       0.6800861745557604  0.7039464051166445  0.17672584133014557          1.0000   
         C         C         1.0       0.699415201295791   0.696166839795382   0.17269751896298446          1.0000   
         C         C         1.0       0.7138690225826583  0.6971126340372683  0.21824636312797746          1.0000   
         C         C         1.0       0.7089072446046095  0.7054468938853056  0.2665862312492233 1.0000   
         C         C         1.0       0.6897137108449259  0.7136221737264262  0.2668446666232743 1.0000   
         C         C         1.0       0.6772517395192372  0.714265316648084   0.22412927634200996          1.0000   
         C         C         1.0       0.6375043601702898  0.6813172490420639  0.031030118949499252         1.0000   
         C         C         1.0       0.6398923268021957  0.6766032486185243  0.979102690788622  1.0000   
         C         C         1.0       0.6674775436788571  0.6898979919970144  0.9545973317519884 1.0000   
         C         C         1.0       0.6928854832005362  0.7046618871989403  0.9880309424848914 1.0000   
         C         C         1.0       0.6905212154618873  0.7093653640073665  0.04199691867644151          1.0000   
         C         C         1.0       0.6627127891909089  0.6970946625356764  0.06536247553956209          1.0000   
         C         C         1.0       0.6678244403315745  0.6833731134707369  0.8914827440356237 1.0000   
         C         C         1.0       0.7430349190917696  0.7240929507219083  0.7789234540361201 1.0000   
         C         C         1.0       0.7458887646292361  0.7361526257934017  0.8278805301955888 1.0000   
         C         C         1.0       0.7221647590303328  0.7253704897845838  0.8612166513478574 1.0000   
         C         C         1.0       0.6946784300739971  0.7000270859944095  0.8503261841081284 1.0000   
         C         C         1.0       0.69243032747636    0.6865188609009895  0.8017082102708297 1.0000   
         C         C         1.0       0.7153190171837034  0.6999405852853158  0.7650090645452826 1.0000   
         C         C         1.0       0.6475228698924743  0.6900589222542797  0.8629052915514225 1.0000   
         C         C         1.0       0.6547939198516324  0.7164783153539378  0.872251125395608  1.0000   
         C         C         1.0       0.6377541745623921  0.7240013334203997  0.8509978366433427 1.0000   
         C         C         1.0       0.6140021635445845  0.7068684976496914  0.8174390877106513 1.0000   
         C         C         1.0       0.6063466774173536  0.6804471585610242  0.806722570957963  1.0000   
         C         C         1.0       0.6227765691513272  0.6727792440543864  0.8315256629015871 1.0000   
         C         C         1.0       0.6264942329556404  0.6281417473484774  0.9008509584923531 1.0000   
         C         C         1.0       0.6201699665880136  0.6031146733358608  0.9207228530365693 1.0000   
         C         C         1.0       0.6435867540719925  0.600997265354786   0.928434872439695  1.0000   
         C         C         1.0       0.6722482602959724  0.6228985334792402  0.9174680059176328 1.0000   
         C         C         1.0       0.6773540535043078  0.6473183613309714  0.903323159385118  1.0000   
         C         C         1.0       0.6560463161035153  0.6515389921766087  0.894593484369008  1.0000   
         H         H         1.0       0.6087843107710539  0.668977390958744   0.20736470012804875          1.0000   
         H         H         1.0       0.6512622366986041  0.648927227663972   0.09349192458589428          1.0000   
         H         H         1.0       0.6208465559676793  0.6006629680162345  0.12741997484580425          1.0000   
         H         H         1.0       0.5797280012866098  0.6220909595133867  0.24008398635125472          1.0000   
         H         H         1.0       0.7018633024577291  0.6878707163024613  0.13681634686247435          1.0000   
         H         H         1.0       0.7251781151269635  0.6863195712287392  0.2162320701672427 1.0000   
         H         H         1.0       0.6834079392488314  0.7190487136016187  0.3040606507593528 1.0000   
         H         H         1.0       0.6590848761264982  0.7159479436310192  0.2283571709853791 1.0000   
         H         H         1.0       0.6149465426076607  0.6715546539706232  0.04166199676232085          1.0000   
         H         H         1.0       0.6185811259564776  0.6630095946687428  0.9603785713491014 1.0000   
         H         H         1.0       0.7153594624056481  0.7130005765766168  0.974173147371269  1.0000   
         H         H         1.0       0.7102045064714196  0.7215265818413471  0.06791727802783387          1.0000   
         H         H         1.0       0.7661048361497003  0.7553663465095789  0.8421520114371965 1.0000   
         H         H         1.0       0.7280407028255784  0.7370251087364816  0.8968209827502727 1.0000   
         H         H         1.0       0.6726368671919135  0.6653778164890917  0.7937738933534874 1.0000   
         H         H         1.0       0.7117304545340244  0.6914274923126801  0.7254300624479141 1.0000   
         H         H         1.0       0.6707840090918872  0.731019236206606   0.9008600457960751 1.0000   
         H         H         1.0       0.6457059365394147  0.7449202878555374  0.8649436014026712 1.0000   
         H         H         1.0       0.5888913698230088  0.666175005126165   0.7801424793130418 1.0000   
         H         H         1.0       0.6160439905317912  0.6520906660379708  0.8209213415166655 1.0000   
         H         H         1.0       0.6078190271461476  0.62844517059113    0.8955932070310736 1.0000   
         H         H         1.0       0.5965987417654225  0.5865524305814654  0.9232001510686492 1.0000   
         H         H         1.0       0.6923102416711702  0.624335526809301   0.9209438222081082 1.0000   
         H         H         1.0       0.7001857249444323  0.6648350083159397  0.9050348237262097 1.0000   
         C         C         1.0       0.7098058186744952  0.520255400023614   0.16331089606214336          1.0000   
         C         C         1.0       0.7279921117277364  0.5450070750723901  0.13670971469800453          1.0000   
         C         C         1.0       0.7287223412641042  0.5675812615232624  0.1501243521239338 1.0000   
         C         C         1.0       0.7097902838342842  0.5666425450548881  0.18608749236086494          1.0000   
         C         C         1.0       0.6903065463325763  0.5414769338770881  0.21214796533476923          1.0000   
         C         C         1.0       0.6907639521836316  0.5186805361220735  0.20220897254619405          1.0000   
         H         H         1.0       0.746800211432353   0.5503406428676879  0.1101375275724983 1.0000   
         H         H         1.0       0.7446751488985006  0.5865752980100563  0.12743442128202154          1.0000   
         H         H         1.0       0.6768935589252535  0.5391548992280745  0.24650080098002716          1.0000   
         H         H         1.0       0.676868382999967   0.5005840207439919  0.22803214129585755          1.0000   
         C         C         1.0       0.6509592766350141  0.5637486484450673  0.19123336195391233          1.0000   
         C         C         1.0       0.6765907643153892  0.5842216657893291  0.2171609437107124 1.0000   
         C         C         1.0       0.6743888469473973  0.6002052088115355  0.25175586909465214          1.0000   
         C         C         1.0       0.6477285059320936  0.5970101045181723  0.2591962456251602 1.0000   
         C         C         1.0       0.6234299602756718  0.577818588220776   0.23157537255078645          1.0000   
         C         C         1.0       0.6236381141637293  0.5586830508023553  0.20286320442149383          1.0000   
         C         C         1.0       0.7094235269952017  0.5924361306522933  0.20119067149748862          1.0000   
         C         C         1.0       0.7151328894098467  0.6132701369696718  0.15632951642892678          1.0000   
         C         C         1.0       0.7289509385476158  0.6410707874170503  0.16698685817487635          1.0000   
         C         C         1.0       0.7319831762959971  0.659696988936304   0.1296658306536287 1.0000   
         C         C         1.0       0.719985315001176   0.6494799021371656  0.08130373924712608          1.0000   
         C         C         1.0       0.7045692455881792  0.6215616017620855  0.06811445914129077          1.0000   
         C         C         1.0       0.7028467926886524  0.6032532308093514  0.10575223901785091          1.0000   
         C         C         1.0       0.723338032747272   0.5967956807835872  0.2998216236913303 1.0000   
         C         C         1.0       0.7451626719892237  0.6032724412698205  0.3358491522135575 1.0000   
         C         C         1.0       0.7756562545585022  0.6194503378135093  0.32263937000125187          1.0000   
         C         C         1.0       0.7834228452515711  0.6296284748053728  0.2707415839166955 1.0000   
         C         C         1.0       0.7616898404712923  0.6219401909279132  0.2341870537311459 1.0000   
         C         C         1.0       0.7319591844246736  0.6041485557110621  0.2478571899158077 1.0000   
         C         C         1.0       0.8004199959611866  0.6258291513220928  0.36386633567854426          1.0000   
         C         C         1.0       0.8137657015438905  0.7010295761253279  0.42811733042149136          1.0000   
         C         C         1.0       0.788630987336916   0.6753787468525805  0.44206884764682314          1.0000   
         C         C         1.0       0.7851322378180667  0.6517695508898594  0.42317350556621336          1.0000   
         C         C         1.0       0.8047263346981797  0.6529784788293685  0.38707025670898115          1.0000   
         C         C         1.0       0.8273053930161576  0.6801269047556934  0.3690728419992514 1.0000   
         C         C         1.0       0.832622279514312   0.7035786460479071  0.39200190950433667          1.0000   
         C         C         1.0       0.8282886075111472  0.6293481014387867  0.3402004778458779 1.0000   
         C         C         1.0       0.8279069238768844  0.613015092078195   0.2998787423729848 1.0000   
         C         C         1.0       0.8544107758933918  0.6177284153749395  0.27857301220719094          1.0000   
         C         C         1.0       0.8812878194563252  0.637970797368726   0.3023695019948843 1.0000   
         C         C         1.0       0.880924184045951   0.6512449719276097  0.34604953369525904          1.0000   
         C         C         1.0       0.8551454238107704  0.6474502515036837  0.3632909467651011 1.0000   
         C         C         1.0       0.7991207350750955  0.6107141948075463  0.46114565192528834          1.0000   
         C         C         1.0       0.7857827546903075  0.5912683488487486  0.4995716514909843 1.0000   
         C         C         1.0       0.7666143567024973  0.5630196700092767  0.4870173992694112 1.0000   
         C         C         1.0       0.7605767646963641  0.5553177925253383  0.43382122558057407          1.0000   
         C         C         1.0       0.7720994722389436  0.5742596167080417  0.3951416928081018 1.0000   
         C         C         1.0       0.7898758979659567  0.6027787131204897  0.4085217955959578 1.0000   
         H         H         1.0       0.6511219348407603  0.5489976417375763  0.16757627701077527          1.0000   
         H         H         1.0       0.6937500698454716  0.6161723289499522  0.27271845088016194          1.0000   
         H         H         1.0       0.6489740881534674  0.6133749668881855  0.28214273521049127          1.0000   
         H         H         1.0       0.6020929872607264  0.5427969937571017  0.18909606193608752          1.0000   
         H         H         1.0       0.736192292062286   0.6495182801254386  0.20734278027054573          1.0000   
         H         H         1.0       0.74342446098164    0.6815554035359818  0.1360910000364155 1.0000   
         H         H         1.0       0.6960678378251134  0.6119758757180117  0.028702920371850738         1.0000   
         H         H         1.0       0.6930732089955395  0.5814693653611961  0.09503684153313063          1.0000   
         H         H         1.0       0.7019968231346703  0.5849702303040825  0.31690666279197827          1.0000   
         H         H         1.0       0.7406056662392742  0.5950808908442964  0.3742946632362592 1.0000   
         H         H         1.0       0.8072889981108446  0.6435033528074191  0.25980637919389776          1.0000   
         H         H         1.0       0.7709779680343487  0.6314410303132694  0.19650283179318873          1.0000   
         H         H         1.0       0.7736035038640714  0.6742844663653733  0.4702894391845709 1.0000   
         H         H         1.0       0.7680994746351527  0.6318308749538635  0.4408224925725512 1.0000   
         H         H         1.0       0.8451171052494308  0.686465235877617   0.33964204568809114          1.0000   
         H         H         1.0       0.8537388506834983  0.7243840787997549  0.38281122847720506          1.0000   
         H         H         1.0       0.8061214295638177  0.5985142659437982  0.2788843317638352 1.0000   
         H         H         1.0       0.8537320913679565  0.6052376240714775  0.24658733001304875          1.0000   
         H         H         1.0       0.902015950696187   0.6646039210252567  0.36951928713095816          1.0000   
         H         H         1.0       0.8582861485764521  0.6608252266056852  0.39605068327511184          1.0000   
         H         H         1.0       0.8137127904764175  0.6331107035925575  0.47400700962975034          1.0000   
         H         H         1.0       0.7924557010809293  0.5974696338111367  0.5426160387011641 1.0000   
         H         H         1.0       0.7493258717754475  0.5349522650318974  0.41966786584094434          1.0000   
         H         H         1.0       0.7651242703095992  0.5680992099308613  0.35563092747345876          1.0000   
         C         C         1.0       0.778800448610438   0.5210393233529815  0.835139894649021  1.0000   
         C         C         1.0       0.7845982784770321  0.5353821852460974  0.7877260661449903 1.0000   
         C         C         1.0       0.7637781058541823  0.5384190655536776  0.7664263943787054 1.0000   
         C         C         1.0       0.7378417733313587  0.5276387029447304  0.7938738934739057 1.0000   
         C         C         1.0       0.7335135558324068  0.5154127297241055  0.8425752770631266 1.0000   
         C         C         1.0       0.75390738876892    0.5138337395256418  0.8656716746734247 1.0000   
         H         H         1.0       0.8018034200293531  0.5413023659282201  0.7642667265018976 1.0000   
         H         H         1.0       0.7705057290412024  0.5519468980544242  0.7314478124121919 1.0000   
         H         H         1.0       0.7112825355418022  0.5050679255080358  0.8590639123447662 1.0000   
         H         H         1.0       0.7475862431985668  0.5024882848699228  0.9013900599996773 1.0000   
         C         C         1.0       0.6676193463658086  0.4792999396960684  0.7814301584412948 1.0000   
         C         C         1.0       0.6796259759411063  0.5074175573159468  0.7875411903941046 1.0000   
         C         C         1.0       0.6604913335251658  0.5146026406253137  0.7944562653431095 1.0000   
         C         C         1.0       0.6297585635279389  0.49380694240856643           0.7911967533263502 1.0000   
         C         C         1.0       0.6190109024878733  0.4669681892508771  0.7752575884774656 1.0000   
         C         C         1.0       0.6384265278894234  0.459776533083009   0.7725986176675931 1.0000   
         C         C         1.0       0.7142990995250814  0.5309264831061287  0.7691459459238178 1.0000   
         C         C         1.0       0.7108533541106642  0.5250408583968597  0.7061213495665496 1.0000   
         C         C         1.0       0.7052325855451151  0.5398610843621128  0.6746999216540709 1.0000   
         C         C         1.0       0.7099015246072526  0.5409511023034146  0.6201703091152378 1.0000   
         C         C         1.0       0.7136682554834012  0.5228594010445834  0.5968590819802236 1.0000   
         C         C         1.0       0.7152475365682913  0.5047842010613031  0.6272177311312337 1.0000   
         C         C         1.0       0.7139848285613457  0.5063992458091187  0.6812576419235692 1.0000   
         C         C         1.0       0.7225589946270272  0.5694710958849103  0.831763433177476  1.0000   
         C         C         1.0       0.7385375309841054  0.5974633472846439  0.846609278431455  1.0000   
         C         C         1.0       0.7634927152582548  0.6185870131742375  0.8188015908008229 1.0000   
         C         C         1.0       0.7699309277366232  0.6114729216782274  0.7708205147456173 1.0000   
         C         C         1.0       0.7519936890464061  0.5846157675014113  0.754975232741499  1.0000   
         C         C         1.0       0.730136672553565   0.5629311864516218  0.7849007494773504 1.0000   
         C         C         1.0       0.7849124126363654  0.6508310176099309  0.8353995169961403 1.0000   
         C         C         1.0       0.7813771023389071  0.7027485861640774  0.7169212874275809 1.0000   
         C         C         1.0       0.7571049148074964  0.6756861831836365  0.7272289239736848 1.0000   
         C         C         1.0       0.7581993237238344  0.6582749841420804  0.7595574333006808 1.0000   
         C         C         1.0       0.7854625652941316  0.6676364352546398  0.781219548932464  1.0000   
         C         C         1.0       0.8112990505365731  0.6935451567723683  0.7672492457788301 1.0000   
         C         C         1.0       0.8088360474138264  0.7104538262274912  0.7351029890518221 1.0000   
         C         C         1.0       0.8161107144715617  0.658500230840156   0.8577518632129045 1.0000   
         C         C         1.0       0.8170965928002336  0.6373647311375559  0.8726563483743103 1.0000   
         C         C         1.0       0.8401148725933049  0.6433364967409458  0.903942847301903  1.0000   
         C         C         1.0       0.8621984326659917  0.6692994675079599  0.9233507210809639 1.0000   
         C         C         1.0       0.8616005490000354  0.6907460226786007  0.9063599998096623 1.0000   
         C         C         1.0       0.8396770021056341  0.6860755641441968  0.8729790623954861 1.0000   
         C         C         1.0       0.767507378872758   0.6782578725953445  0.8824264807196589 1.0000   
         C         C         1.0       0.7597151746790535  0.6873440374116797  0.9249014343765805 1.0000   
         C         C         1.0       0.75981956922067    0.6798548058581073  0.9747673045541122 1.0000   
         C         C         1.0       0.7660183549498196  0.6604318929582298  0.9842815774874997 1.0000   
         C         C         1.0       0.7721835281065484  0.6498418487364698  0.939777047994372  1.0000   
         C         C         1.0       0.7742216570242728  0.6594788240017925  0.887869594309764  1.0000   
         H         H         1.0       0.6826690459423208  0.47303489359240225           0.7777922851759145 1.0000   
         H         H         1.0       0.6655183464828448  0.5335458864554617  0.7961635702012716 1.0000   
         H         H         1.0       0.6150339229802003  0.49985450399796866           0.7946259483752165 1.0000   
         H         H         1.0       0.630445481334737   0.4401490485435293  0.7562977833733623 1.0000   
         H         H         1.0       0.6995823191118385  0.5544464199192375  0.6869830113454283 1.0000   
         H         H         1.0       0.7076156871235125  0.5545905416996133  0.5957208826930545 1.0000   
         H         H         1.0       0.7196156521308313  0.49280511184132125           0.6035827482407743 1.0000   
         H         H         1.0       0.7148885098129121  0.4924598430358412  0.70161350681944   1.0000   
         H         H         1.0       0.7061235727482368  0.5537873604707882  0.8604072745288606 1.0000   
         H         H         1.0       0.7293237735613327  0.6013186272655453  0.8832996698113648 1.0000   
         H         H         1.0       0.7868026064062142  0.6279312421248754  0.7481549153199039 1.0000   
         H         H         1.0       0.7594069098245251  0.5820173081751182  0.7159692812703102 1.0000   
         H         H         1.0       0.7345108434150245  0.6675943961158601  0.7167662890351928 1.0000   
         H         H         1.0       0.7379267646339234  0.6364055356063246  0.7634848437957136 1.0000   
         H         H         1.0       0.8327302010499048  0.6999454834662573  0.7816884046555819 1.0000   
         H         H         1.0       0.8283783821826621  0.7306299204511526  0.7240659976130825 1.0000   
         H         H         1.0       0.8020585261018928  0.6159177308563188  0.860788121757193  1.0000   
         H         H         1.0       0.8400344043857406  0.6267538891260852  0.9222246435753976 1.0000   
         H         H         1.0       0.8775486390667697  0.7103593616757559  0.9243197045829911 1.0000   
         H         H         1.0       0.8376127549147486  0.7027881510403934  0.867328572412205  1.0000   
         H         H         1.0       0.7707840607936116  0.6895999002368202  0.846367577467466  1.0000   
         H         H         1.0       0.7527418153751776  0.7000249782042988  0.9176320841143119 1.0000   
         H         H         1.0       0.768297309435109   0.6566845655583177  0.02634548865095865          1.0000   
         H         H         1.0       0.7789882499037086  0.636511778716895   0.9461177959516817 1.0000   
         C         C         1.0       0.09419769756035179           0.682861986790872  0.46710400218309955          1.0000   
         C         C         1.0       0.06906594675014421           0.6767390302631748 0.493415740893104  1.0000   
         C         C         1.0       0.057272016987236496          0.6902087840663566 0.4771620724942271 1.0000   
         C         C         1.0       0.0692775008256945  0.7096335639410032  0.43734463627185133          1.0000   
         C         C         1.0       0.0950991479649228  0.7146114147881704  0.41415744857426157          1.0000   
         C         C         1.0       0.10837536451621976           0.7025214644591603 0.42891559598379364          1.0000   
         H         H         1.0       0.05912657899584661           0.6614187886699483 0.524691203717576  1.0000   
         H         H         1.0       0.03793757134764819           0.6851869681509641 0.5000954377210364 1.0000   
         H         H         1.0       0.10413685029334219           0.7273551965157246 0.37950322838543904          1.0000   
         H         H         1.0       0.12764239622816498           0.7066000065856354 0.40884353442265736          1.0000   
         C         C         1.0       0.07800537207660363           0.7624338418740219 0.501894117806255  1.0000   
         C         C         1.0       0.08235575532970385           0.7551271347666031 0.4524092975351464 1.0000   
         C         C         1.0       0.10946731849194125           0.7744084756549691 0.4250123808786908 1.0000   
         C         C         1.0       0.1307012162254355  0.7999228743705679  0.4509871407835792 1.0000   
         C         C         1.0       0.1264515246871778  0.8068434985811854  0.49898858691603204          1.0000   
         C         C         1.0       0.10066278847355847           0.7881005397542857 0.5263135779174344 1.0000   
         C         C         1.0       0.05703636258986111           0.7261288758332645 0.4224119405109838 1.0000   
         C         C         1.0       0.02285819408246126           0.7109531014468392 0.4389686164744634 1.0000   
         C         C         1.0       0.0010651380182589154         0.6828063743041385 0.43119674315745166          1.0000   
         C         C         1.0       0.9749540765487903  0.6703689533278334  0.45927623803406054          1.0000   
         C         C         1.0       0.9678300470273077  0.6858621500201704  0.4853468230205118 1.0000   
         C         C         1.0       0.9870132484012022  0.71464497715749    0.48271228755917783          1.0000   
         C         C         1.0       0.014071479313260804          0.7272616710763232 0.4581077497015366 1.0000   
         C         C         1.0       0.05673046563528028           0.7540928003901242 0.34232928794363476          1.0000   
         C         C         1.0       0.05290857460066323           0.7565386770530645 0.2883882241698626 1.0000   
         C         C         1.0       0.049475849085493406          0.7380223531312541 0.2500804139031321 1.0000   
         C         C         1.0       0.05236444005525209           0.7177625439456555 0.2694565116069043 1.0000   
         C         C         1.0       0.05180754881807448           0.7134587434584311 0.32293636806669723          1.0000   
         C         C         1.0       0.05658080354991757           0.7323831453164068 0.361203869394033  1.0000   
         C         C         1.0       0.042284036319858   0.738461096869737   0.1891173603568112 1.0000   
         C         C         1.0       0.0797750681720486  0.8168559873486291  0.10503553482478667          1.0000   
         C         C         1.0       0.0509392385308427  0.7947565742586936  0.09573602166202932          1.0000   
         C         C         1.0       0.03843419446030283           0.769926081243057  0.1233823281744133 1.0000   
         C         C         1.0       0.053536497456476706          0.7684480620068025 0.16577445972819932          1.0000   
         C         C         1.0       0.0812515755864891  0.7919558719601749  0.1781802302110849 1.0000   
         C         C         1.0       0.09375640870776913           0.8163611113201815 0.15060681584894145          1.0000   
         C         C         1.0       0.008293579092149006          0.7161903613555376 0.19092514393506102          1.0000   
         C         C         1.0       0.9947618943668726  0.6874521383267681  0.18687707433025696          1.0000   
         C         C         1.0       0.9651742108201743  0.6668606674041592  0.19626317864975998          1.0000   
         C         C         1.0       0.9474207414799778  0.6747135613400305  0.20914325615931073          1.0000   
         C         C         1.0       0.9583326457686139  0.702175878449131   0.20837156279075647          1.0000   
         C         C         1.0       0.9878697140217026  0.7220711807516509  0.2007707021421161 1.0000   
         C         C         1.0       0.04564766720109281           0.7195812376933208 0.09396134117808487          1.0000   
         C         C         1.0       0.06323493076232989           0.7207629632545367 0.05361325901962477          1.0000   
         C         C         1.0       0.09244836866015493           0.7306630038979054 0.06414278204039725          1.0000   
         C         C         1.0       0.10274064716347842           0.7371960496538491 0.11655868247114   1.0000   
         C         C         1.0       0.08661238336640698           0.7392188352840086 0.1556589387302819 1.0000   
         C         C         1.0       0.058683257148361534          0.7314107967435326 0.14549760276000182          1.0000   
         H         H         1.0       0.05783609027356218           0.7495918432197485 0.5242980339005077 1.0000   
         H         H         1.0       0.1144648413824274  0.7702692410683285  0.3831186820751285 1.0000   
         H         H         1.0       0.15086680071953773           0.8151775329149259 0.4249536494983739 1.0000   
         H         H         1.0       0.09592523003263542           0.7949612042915457 0.5639104772043445 1.0000   
         H         H         1.0       0.006982968433112191          0.6703630713508154 0.40865388035071865          1.0000   
         H         H         1.0       0.9571257535592287  0.6469165453458625  0.4582090841106979 1.0000   
         H         H         1.0       0.9817503501765322  0.7271119575123113  0.5026592778526725 1.0000   
         H         H         1.0       0.028884123642739512          0.7496950315803532 0.45615118359509843          1.0000   
         H         H         1.0       0.05533635066630582           0.765730202834237  0.3733732255241179 1.0000   
         H         H         1.0       0.0536757924040292  0.773968304674157   0.27452177623571206          1.0000   
         H         H         1.0       0.048089739073500004          0.7013934874057217 0.24329901326897113          1.0000   
         H         H         1.0       0.0499163634714348  0.6948980754430257  0.328000296288486  1.0000   
         H         H         1.0       0.038705140304872154          0.7944112827045178 0.06142264855400637          1.0000   
         H         H         1.0       0.016406556323165677          0.7513140535395207 0.10879792301222513          1.0000   
         H         H         1.0       0.09470718350329088           0.7939974852695323 0.2139306463127449 1.0000   
         H         H         1.0       0.11592523034274205           0.8343010731040277 0.16354777252065766          1.0000   
         H         H         1.0       0.008559081791520207          0.6801573247118493 0.17647442175385547          1.0000   
         H         H         1.0       0.957594827345639   0.6458677353455955  0.19975525000029462          1.0000   
         H         H         1.0       0.9440556756304344  0.7079639440331323  0.22061209815614455          1.0000   
         H         H         1.0       0.9957611232560556  0.743071998541564   0.2029531279346753 1.0000   
         H         H         1.0       0.023054395208262912          0.7122098045945857 0.08607654689920731          1.0000   
         H         H         1.0       0.05467723033758776           0.7141270828641806 0.014601539438947375         1.0000   
         H         H         1.0       0.12420799761922541           0.7436674313957782 0.1258741954122704 1.0000   
         H         H         1.0       0.09686499048417785           0.7486785420321957 0.19290256227998498          1.0000   
         C         C         1.0       0.12181550681595965           0.7583126516878014 0.664052751861226  1.0000   
         C         C         1.0       0.10971039128400362           0.7447883183312346 0.7103260951153799 1.0000   
         C         C         1.0       0.10445694122255067           0.7570074025069413 0.7526584623170752 1.0000   
         C         C         1.0       0.11336950609465224           0.7837959231107571 0.7491069330005006 1.0000   
         C         C         1.0       0.12455131443785938           0.7972917232317985 0.6994740090802073 1.0000   
         C         C         1.0       0.12981600112209257           0.7844797571952574 0.6586402813450094 1.0000   
         H         H         1.0       0.1069972754579731  0.7256381869048906  0.7205818488717034 1.0000   
         H         H         1.0       0.09528329787430878           0.7433932152958427 0.7895662945881556 1.0000   
         H         H         1.0       0.1313641428605654  0.8191042858986973  0.6946609086445308 1.0000   
         H         H         1.0       0.1390553177564997  0.7954804415737455  0.623549794358181  1.0000   
         C         C         1.0       0.15930531090554134           0.8450957925277754 0.7917115056843371 1.0000   
         C         C         1.0       0.1297609373733306  0.8304893379920997  0.8028883004793526 1.0000   
         C         C         1.0       0.11972312510679317           0.8461104713911262 0.8200799936397218 1.0000   
         C         C         1.0       0.13777913187843738           0.8748415114571696 0.8192158498651013 1.0000   
         C         C         1.0       0.1663617023192172  0.8879876747609657  0.8035122114621366 1.0000   
         C         C         1.0       0.17842299009832518           0.8737572362086771 0.7932008893672693 1.0000   
         C         C         1.0       0.10853694881057718           0.7971018209420463 0.8012710839934344 1.0000   
         C         C         1.0       0.11629107152979756           0.791441359975077  0.8571332241731384 1.0000   
         C         C         1.0       0.10692424229541753           0.7944494314927886 0.9081919957566982 1.0000   
         C         C         1.0       0.11025290380576958           0.7834482287397897 0.954495964153362  1.0000   
         C         C         1.0       0.12986123755745838           0.7766042625820208 0.9534592563728878 1.0000   
         C         C         1.0       0.14438917082940805           0.7792288663030308 0.9061619980652699 1.0000   
         C         C         1.0       0.13771807508527978           0.7868189897350661 0.8586891552808222 1.0000   
         C         C         1.0       0.060376285967861376          0.7925617997068043 0.768607969230913  1.0000   
         C         C         1.0       0.030450781082357548          0.7779637268622508 0.7624534868365185 1.0000   
         C         C         1.0       0.010136554253849406          0.7502157372486516 0.7824269927165416 1.0000   
         C         C         1.0       0.023733693263078726          0.7393779482858146 0.8069848177751605 1.0000   
         C         C         1.0       0.052700742203748874          0.7544824985468354 0.8141065360864429 1.0000   
         C         C         1.0       0.0731758726473899  0.7815119682002389  0.7944839795613989 1.0000   
         C         C         1.0       0.9748526390570394  0.7314851818072376  0.7730370274175034 1.0000   
         C         C         1.0       0.928299880127274   0.7688577222237859  0.7881307775648942 1.0000   
         C         C         1.0       0.9175356735551585  0.7453617761924308  0.7562055003209528 1.0000   
         C         C         1.0       0.9340878467194884  0.7364031850236697  0.7485424229519304 1.0000   
         C         C         1.0       0.9611708113555689  0.747595870532492   0.7738754738095854 1.0000   
         C         C         1.0       0.9718666111881065  0.7708748770601125  0.8054037390836324 1.0000   
         C         C         1.0       0.9568012418612567  0.7831051682026928  0.8124070727242977 1.0000   
         C         C         1.0       0.9548309425504135  0.7108719531342369  0.822404944981243  1.0000   
         C         C         1.0       0.9281768690732939  0.685375555965219   0.81362639005947   1.0000   
         C         C         1.0       0.911577467045966   0.6685785852693877  0.8561270020259117 1.0000   
         C         C         1.0       0.9205414886544769  0.6782565615198155  0.9066634934333966 1.0000   
         C         C         1.0       0.9471509058511617  0.7037554086822436  0.9172593237397046 1.0000   
         C         C         1.0       0.9646127126809845  0.7197400662660783  0.8754831013562736 1.0000   
         C         C         1.0       0.9698078387866292  0.6930455129656145  0.7140549894463465 1.0000   
         C         C         1.0       0.9583653505075596  0.6761804933698269  0.6695052165503378 1.0000   
         C         C         1.0       0.9552028568964344  0.6856305243468584  0.6208897252058886 1.0000   
         C         C         1.0       0.963409215098372   0.7126336121737292  0.6194362519102815 1.0000   
         C         C         1.0       0.9706026921584535  0.7278619904283941  0.6675822116504995 1.0000   
         C         C         1.0       0.9737623657755781  0.7181744245026884  0.7164946796135268 1.0000   
         H         H         1.0       0.16892388793045376           0.8337605357398027 0.7794360569110691 1.0000   
         H         H         1.0       0.09740154727698136           0.8346455839282789 0.8366058539310143 1.0000   
         H         H         1.0       0.128651259904063   0.8860040392402003  0.8339532397703867 1.0000   
         H         H         1.0       0.20246937680351396           0.8854071295252771 0.7829209049340811 1.0000   
         H         H         1.0       0.09485635372653944           0.8028772355301934 0.9134724689418388 1.0000   
         H         H         1.0       0.09906035189130713           0.7826302236826984 0.9882457078008389 1.0000   
         H         H         1.0       0.16006485150314753           0.7743260588871607 0.9025944419640879 1.0000   
         H         H         1.0       0.1462968403352849  0.7834893819864561  0.8204357520986231 1.0000   
         H         H         1.0       0.07414672768654618           0.8118352975230756 0.7449748682586379 1.0000   
         H         H         1.0       0.023067292003427164          0.7865572933106326 0.738970872632535  1.0000   
         H         H         1.0       0.009416120133828754          0.7169564051793239 0.8168733471400631 1.0000   
         H         H         1.0       0.05904895400613164           0.7430841695223578 0.8354912187804292 1.0000   
         H         H         1.0       0.8951083541117361  0.7337192656887022  0.7369175447637364 1.0000   
         H         H         1.0       0.9243438404689656  0.7182752859397203  0.7210406186816868 1.0000   
         H         H         1.0       0.9931697200032233  0.7806866173896958  0.8254363556546114 1.0000   
         H         H         1.0       0.9676026533446815  0.8006102338684556  0.8403458087485863 1.0000   
         H         H         1.0       0.921526191610631   0.6775618655103969  0.7748172080166482 1.0000   
         H         H         1.0       0.8890168422914275  0.6503701358563431  0.8489015980541295 1.0000   
         H         H         1.0       0.952957969520977   0.7117311095628333  0.9571411132388039 1.0000   
         H         H         1.0       0.9833616046668936  0.7403215010956915  0.884174615733617  1.0000   
         H         H         1.0       0.9665922414834721  0.6822741854519938  0.7516047149301646 1.0000   
         H         H         1.0       0.9467540237118046  0.6542636585240609  0.6732534663747053 1.0000   
         H         H         1.0       0.9613656264601682  0.7226905121986948  0.5876819150047305 1.0000   
         H         H         1.0       0.9722775526368209  0.7467050662069181  0.6671735891871265 1.0000   
         C         C         1.0       0.15689531794543665           0.9757620332192903 0.6810864340117273 1.0000   
         C         C         1.0       0.14668092640954766           0.9831596530521213 0.6396305785457732 1.0000   
         C         C         1.0       0.1289745964037119  0.9633163695377109  0.5987065808623016 1.0000   
         C         C         1.0       0.123720563221003   0.9378435795151289  0.595727603689188  1.0000   
         C         C         1.0       0.13336660188249483           0.9310518075036432 0.638644750497224  1.0000   
         C         C         1.0       0.1495230896705817  0.9491992480316569  0.6788124201213539 1.0000   
         H         H         1.0       0.15339233339822322           0.0048209871982434205        0.6356119906560274 1.0000   
         H         H         1.0       0.12069121864725152           0.968984381168216  0.5682146305254054 1.0000   
         H         H         1.0       0.12916280231074406           0.9112831102768874 0.6452908418407419 1.0000   
         H         H         1.0       0.16013781475137012           0.9425919800092248 0.7051768054037841 1.0000   
         C         C         1.0       0.14907576424223867           0.912929721157889  0.5340040732727195 1.0000   
         C         C         1.0       0.11804224982344702           0.8983960470803695 0.53528916037464   1.0000   
         C         C         1.0       0.10077964897172498           0.8714291509903381 0.5203782163139474 1.0000   
         C         C         1.0       0.11456233408366012           0.8584558137933161 0.5065703946802024 1.0000   
         C         C         1.0       0.14571461830131027           0.8726402825154864 0.5095120588563479 1.0000   
         C         C         1.0       0.1618487982769694  0.8993521053882619  0.5245523227403949 1.0000   
         C         C         1.0       0.10436284201752932           0.9157560670908993 0.5486766019585321 1.0000   
         C         C         1.0       0.1017080935231871  0.9294351331665064  0.49424800977632066          1.0000   
         C         C         1.0       0.11596802612684676           0.9317752104691283 0.4487901542549426 1.0000   
         C         C         1.0       0.1130727615792968  0.9438473648738116  0.4038420232687787 1.0000   
         C         C         1.0       0.09590923233199189           0.9529510253073479 0.4053120364428401 1.0000   
         C         C         1.0       0.08175576943293472           0.9505866602921058 0.45081435744774256          1.0000   
         C         C         1.0       0.0842127991440178  0.9389211453658162  0.4947530101581678 1.0000   
         C         C         1.0       0.062319938625638116          0.8934258027677622 0.6274695144757291 1.0000   
         C         C         1.0       0.036155854399472   0.8862722006405146  0.6431029616112328 1.0000   
         C         C         1.0       0.01477934755945931           0.8819904545628254 0.6046633904103073 1.0000   
         C         C         1.0       0.01589552513406267           0.8725080944144338 0.5544151832033597 1.0000   
         C         C         1.0       0.04303839990724101           0.8779969819979246 0.5413779332080445 1.0000   
         C         C         1.0       0.06909858986133055           0.8944694510377795 0.5738381037077086 1.0000   
         C         C         1.0       0.9905806149551389  0.8884048658810034  0.6187076460945284 1.0000   
         C         C         1.0       0.9281892167870961  0.8134832027305136  0.7088681077489044 1.0000   
         C         C         1.0       0.9547800000059489  0.8346735603988193  0.7312994549597618 1.0000   
         C         C         1.0       0.9733152997529434  0.8592918831905204  0.7068023179486925 1.0000   
         C         C         1.0       0.9676299891549217  0.8618835387747443  0.6539529710490101 1.0000   
         C         C         1.0       0.9403698795172836  0.8407433945106698  0.6315871359887328 1.0000   
         C         C         1.0       0.9204871920457387  0.8155655470031674  0.6577839422422282 1.0000   
         C         C         1.0       0.9755152236005307  0.8946445017017     0.5732111585944576 1.0000   
         C         C         1.0       0.98551705648048    0.9016801328961863  0.5206012639343527 1.0000   
         C         C         1.0       0.9735309609766788  0.91031719721221    0.48538899346404446          1.0000   
         C         C         1.0       0.9518113484354982  0.9128784508281519  0.5021494400725015 1.0000   
         C         C         1.0       0.9429760495245223  0.9072732797188697  0.5548975010736217 1.0000   
         C         C         1.0       0.9520986071446838  0.8962820846025068  0.588624631646347  1.0000   
         C         C         1.0       0.0007329872267185511         0.9231970481506053 0.6948031954956249 1.0000   
         C         C         1.0       0.02092038776065741           0.9470739092400028 0.7238294374080246 1.0000   
         C         C         1.0       0.04736188245688511           0.9672592473646596 0.7006075349398613 1.0000   
         C         C         1.0       0.05180714246034479           0.9635125546140836 0.6488627723072244 1.0000   
         C         C         1.0       0.0336411016648841  0.939288804122141   0.6223870219098666 1.0000   
         C         C         1.0       0.009240694632388857          0.9178400550734922 0.6480363657929639 1.0000   
         H         H         1.0       0.16160061457993402           0.9351969958512514 0.5430135204144041 1.0000   
         H         H         1.0       0.0755764882921266  0.8589565849251243  0.5200921633562603 1.0000   
         H         H         1.0       0.09959114091851107           0.8371713026825656 0.4876454018581523 1.0000   
         H         H         1.0       0.18616315249428972           0.9132636168858729 0.5209085370220103 1.0000   
         H         H         1.0       0.13010221670378308           0.9255889615218579 0.4427143638583302 1.0000   
         H         H         1.0       0.12380139432442716           0.9467022491430528 0.3675161567617981 1.0000   
         H         H         1.0       0.06901794624729352           0.9586154002875902 0.45837023109540814          1.0000   
         H         H         1.0       0.07539778703286415           0.9388813390272988 0.5325115401813459 1.0000   
         H         H         1.0       0.07874827033213405           0.9023432589886745 0.6606147542240091 1.0000   
         H         H         1.0       0.033405163185679765          0.8913809171447455 0.6841104374115526 1.0000   
         H         H         1.0       0.9997243175590701  0.8667870180263493  0.5240663347999492 1.0000   
         H         H         1.0       0.0458609776893566  0.8755746812897716  0.5004874169314751 1.0000   
         H         H         1.0       0.9596848495690284  0.8311197029882037  0.7722195799551466 1.0000   
         H         H         1.0       0.9923210098571112  0.8773597885586568  0.7278139886962202 1.0000   
         H         H         1.0       0.9322285531435576  0.8432634946583911  0.5953396232037371 1.0000   
         H         H         1.0       0.8986240343401507  0.7971294709972564  0.6387910431262035 1.0000   
         H         H         1.0       0.0029717568628149227         0.900901228442394  0.507298623652615  1.0000   
         H         H         1.0       0.9818496018219479  0.9149638149091524  0.4447021334586915 1.0000   
         H         H         1.0       0.9257095619158041  0.9101257675268782  0.5674419944269282 1.0000   
         H         H         1.0       0.9443979340489569  0.8943541158116104  0.6295282373027249 1.0000   
         H         H         1.0       0.9808339241860332  0.9092710871282789  0.7176590740296301 1.0000   
         H         H         1.0       0.013066559032964387          0.9480476070596522 0.763842041358528  1.0000   
         H         H         1.0       0.07299275530204885           0.9792550335651652 0.6309890499176164 1.0000   
         H         H         1.0       0.04096285434082381           0.9371109499738143 0.5831806683677946 1.0000   
         C         C         1.0       0.20137405861558946           0.0699475524724571 0.02899772720992333          1.0000   
         C         C         1.0       0.1816237096807407  0.06543746213393664           0.9892844776274315 1.0000   
         C         C         1.0       0.16466184412570883           0.04132465630292992          0.9593545970266563 1.0000   
         C         C         1.0       0.17180598370138966           0.02217291412757838          0.9637155815798497 1.0000   
         C         C         1.0       0.19622396783012053           0.02931719102593   0.9962797603607774 1.0000   
         C         C         1.0       0.20864374576953537           0.051676737365105696         0.03008218420602482          1.0000   
         H         H         1.0       0.17228688448657814           0.0767405595819024 0.9915460363588485 1.0000   
         H         H         1.0       0.144949242133793   0.03633805926049316           0.9385974089277118 1.0000   
         H         H         1.0       0.20581649873187824           0.017547006427452105         0.9961909571733434 1.0000   
         H         H         1.0       0.22334744605838472           0.05124808361274469          0.05695599114455696          1.0000   
         C         C         1.0       0.19023804474108363           0.9904604730690634 0.8863595242679323 1.0000   
         C         C         1.0       0.1644626862210199  0.9766247668739755  0.9196168421009377 1.0000   
         C         C         1.0       0.1501707137320636  0.9482829794400537  0.9300414606070041 1.0000   
         C         C         1.0       0.1626070243647002  0.9358916640556649  0.9098692265067114 1.0000   
         C         C         1.0       0.18756370232780228           0.9494691645449872 0.8774265883764889 1.0000   
         C         C         1.0       0.20233598357840177           0.977193013269656  0.8701149630677936 1.0000   
         C         C         1.0       0.1514006853942491  0.9931686333733939  0.9345089271210073 1.0000   
         C         C         1.0       0.13780486156962546           0.990850163363769  0.876574082493092  1.0000   
         C         C         1.0       0.11254766704784491           0.9687445438854121 0.8530561221350498 1.0000   
         C         C         1.0       0.10048480237548851           0.971112014890123  0.8059220345147982 1.0000   
         C         C         1.0       0.11479751619660594           0.9974251298833648 0.7828710261686989 1.0000   
         C         C         1.0       0.14006361914306997           0.019767160071020307         0.8080529671217453 1.0000   
         C         C         1.0       0.15322422067260666           0.016690185471295305         0.8497589810048272 1.0000   
         C         C         1.0       0.13332753604872316           0.9706097039965637 0.03029270995219191          1.0000   
         C         C         1.0       0.11162910304757112           0.9554674668366813 0.06709569358561307          1.0000   
         C         C         1.0       0.08280095866022408           0.9467331654421927 0.05935756505343882          1.0000   
         C         C         1.0       0.07838252838023685           0.9553391442627936 0.012578469922515767         1.0000   
         C         C         1.0       0.10033145857517445           0.9716107822443084 0.9775851464917884 1.0000   
         C         C         1.0       0.12825793497644522           0.9792369580846533 0.9826774840358501 1.0000   
         C         C         1.0       0.05521334954369439           0.924158606360109  0.09873759455091037          1.0000   
         C         C         1.0       0.07264320940008706           0.8646024279207826 0.05526529649198398          1.0000   
         C         C         1.0       0.0783676843561274  0.8757824555897764  0.10520642681982274          1.0000   
         C         C         1.0       0.06770258560745246           0.8893527708520544 0.12403298912860052          1.0000   
         C         C         1.0       0.055395126295450625          0.898311684423743  0.08932290907259754          1.0000   
         C         C         1.0       0.04793373945950963           0.8858923996247899 0.03803381343133761          1.0000   
         C         C         1.0       0.0552476245284832  0.8679389153798658  0.021226415687168213         1.0000   
         C         C         1.0       0.02454236326323267           0.9184388548539214 0.08463897883809303          1.0000   
         C         C         1.0       0.025287236446381645          0.9420441788533109 0.07870026426661236          1.0000   
         C         C         1.0       0.9995620782435102  0.9396398148702864  0.06567016301592954          1.0000   
         C         C         1.0       0.9738914967900414  0.912687682231182   0.05364521862521011          1.0000   
         C         C         1.0       0.9725220814696284  0.889493198529441   0.05846946036726619          1.0000   
         C         C         1.0       0.9979319545969902  0.892603507261247   0.070915775174357  1.0000   
         C         C         1.0       0.04051218913948129           0.9131514203057797 0.19505594044725108          1.0000   
         C         C         1.0       0.041501136219268764          0.9196149998766024 0.24822775255339383          1.0000   
         C         C         1.0       0.06081737232096618           0.9460611832528433 0.26649230609400526          1.0000   
         C         C         1.0       0.08070564926449797           0.9675943053216857 0.2317101929143597 1.0000   
         C         C         1.0       0.08003667448189522           0.9605540103683036 0.17784867413391403          1.0000   
         C         C         1.0       0.060949852306970254          0.9336990002516338 0.16020845762772587          1.0000   
         H         H         1.0       0.20500452675670267           0.012879597917248242         0.8887499834911711 1.0000   
         H         H         1.0       0.1299145177285399  0.9367469218993937  0.9506527124898229 1.0000   
         H         H         1.0       0.15053686541717215           0.9144877843967416 0.9109231169431236 1.0000   
         H         H         1.0       0.2256627061008074  0.9908238391860453  0.8583714867459141 1.0000   
         H         H         1.0       0.10038914374713448           0.9496568526656005 0.8705632959906809 1.0000   
         H         H         1.0       0.079300402672144   0.9523045815172935  0.7889149392199193 1.0000   
         H         H         1.0       0.14846798351660073           0.04010449837185237          0.7914713056790725 1.0000   
         H         H         1.0       0.17529767681586716           0.03501696009338029          0.8636593418395286 1.0000   
         H         H         1.0       0.15518287205662906           0.9756213235449116 0.04074745812457814          1.0000   
         H         H         1.0       0.11852830162689365           0.9519015898389502 0.10566409611723106          1.0000   
         H         H         1.0       0.05628364704547284           0.9453265065858111 0.9970481379094066 1.0000   
         H         H         1.0       0.09435993925061825           0.9767670922125845 0.941169631940662  1.0000   
         H         H         1.0       0.0907530969514414  0.8721954831112129  0.13414025460127724          1.0000   
         H         H         1.0       0.07208170683416726           0.8966407075249501 0.16602443574939355          1.0000   
         H         H         1.0       0.039471088462129655          0.892084379045823  0.006573578998432472         1.0000   
         H         H         1.0       0.04857539241343889           0.8585177586557876 0.9826923808172833 1.0000   
         H         H         1.0       0.04307011608587619           0.9623903903527091 0.08972152265463841          1.0000   
         H         H         1.0       0.9990760003623335  0.9572655476598729  0.0658055785012246 1.0000   
         H         H         1.0       0.9532570356581532  0.8709965938006713  0.04580930711681974          1.0000   
         H         H         1.0       0.9966437397907706  0.8742308087270093  0.07351205127378457          1.0000   
         H         H         1.0       0.023158299933956794          0.8920698662045602 0.18720248667046438          1.0000   
         H         H         1.0       0.024287151837996346          0.9013057857761372 0.2688319628308243 1.0000   
         H         H         1.0       0.09042096547595158           0.9870340395732062 0.24833779448246454          1.0000   
         H         H         1.0       0.09073024057494816           0.9766316799481801 0.14901982374802958          1.0000   
         C         C         1.0       0.09093176464244634           0.6368631565352784 0.3839000669913611 1.0000   
         C         C         1.0       0.06657117036513172           0.6255964661119584 0.3496201908329494 1.0000   
         C         C         1.0       0.07070875464674664           0.6276768590382614 0.2930940892646694 1.0000   
         C         C         1.0       0.09956679112043387           0.6449579642998502 0.2687828396776917 1.0000   
         C         C         1.0       0.1235291758123227  0.6589124738665486  0.3040106068833958 1.0000   
         C         C         1.0       0.11846170688577828           0.6544914582931508 0.35849828500396946          1.0000   
         H         H         1.0       0.04524919500643554           0.6182857525941644 0.36747811081492854          1.0000   
         H         H         1.0       0.05006588574143889           0.6169004805727962 0.27099494174777405          1.0000   
         H         H         1.0       0.14599713797735991           0.6694627817295712 0.28804815534950623          1.0000   
         H         H         1.0       0.1391222747385954  0.668443890099378   0.3816717267620354 1.0000   
         C         C         1.0       0.13495455304595994           0.6990685792368042 0.21203587636816937          1.0000   
         C         C         1.0       0.13008678572227494           0.6757416123499862 0.18619297085772543          1.0000   
         C         C         1.0       0.14812392881169623           0.6813502238166372 0.14144498973629083          1.0000   
         C         C         1.0       0.16578817128297696           0.7070636006260848 0.12035972027812904          1.0000   
         C         C         1.0       0.1689610687192875  0.7290781635934039  0.14461826373771508          1.0000   
         C         C         1.0       0.15428994839369436           0.7260463142919568 0.19127974225825325          1.0000   
         C         C         1.0       0.10331818112212177           0.6457858039641573 0.20451565793867205          1.0000   
         C         C         1.0       0.0775792833957687  0.6424777854048264  0.17270022228297494          1.0000   
         C         C         1.0       0.07192416502505394           0.630589176804485  0.1232102620423916 1.0000   
         C         C         1.0       0.050328712924970986          0.6293975912660088 0.09186033459357867          1.0000   
         C         C         1.0       0.0336539797635107  0.6387178761611034  0.10910828476079404          1.0000   
         C         C         1.0       0.0408209406940343  0.6516363421159094  0.1584083089038253 1.0000   
         C         C         1.0       0.060770814805819695          0.6515327513401024 0.19074052459897417          1.0000   
         C         C         1.0       0.13399886146396045           0.6262048586869686 0.20793810399841167          1.0000   
         C         C         1.0       0.13684016259448395           0.6053149500449218 0.21817187530019344          1.0000   
         C         C         1.0       0.1119339037451812  0.5779095195995826  0.22285645696213335          1.0000   
         C         C         1.0       0.08448286006236416           0.5713437367874606 0.20934097092075443          1.0000   
         C         C         1.0       0.08144225746742961           0.5921979535562099 0.1952832421968609 1.0000   
         C         C         1.0       0.10578085826950323           0.6200052237679814 0.19971551019080855          1.0000   
         C         C         1.0       0.1164396112518371  0.5564805922284642  0.25284689037271213          1.0000   
         C         C         1.0       0.20721451412346337           0.588666547245335  0.19561434987402204          1.0000   
         C         C         1.0       0.2021004678160898  0.5894182140196901  0.2488077353995964 1.0000   
         C         C         1.0       0.17359479668216227           0.5768526903484209 0.26643580703190883          1.0000   
         C         C         1.0       0.14982115322260903           0.5658570384878767 0.2340942674095325 1.0000   
         C         C         1.0       0.15541060117393934           0.5654494099529083 0.17810494587879153          1.0000   
         C         C         1.0       0.18321742539204866           0.5750040569966842 0.15941685385193774          1.0000   
         C         C         1.0       0.09057879581586614           0.5242663399105791 0.24106203396990433          1.0000   
         C         C         1.0       0.062015800770453655          0.5123925862186591 0.263001707992975  1.0000   
         C         C         1.0       0.0396712821935834  0.485327609270119   0.2581309849059194 1.0000   
         C         C         1.0       0.043691645662647494          0.4677104314418637 0.23105898132773228          1.0000   
         C         C         1.0       0.0712756031177435  0.4796248672032312  0.2086978863950822 1.0000   
         C         C         1.0       0.09410487984341431           0.5066008970433565 0.21555268973003444          1.0000   
         C         C         1.0       0.11588390480380473           0.5430892083533501 0.35023368922283965          1.0000   
         C         C         1.0       0.11840102642898209           0.5470848346724357 0.4052492472204537 1.0000   
         C         C         1.0       0.1164646817312378  0.5666692749315148  0.4287545458059997 1.0000   
         C         C         1.0       0.11588897053270131           0.58502527538111   0.3955347159879991 1.0000   
         C         C         1.0       0.11525600714473283           0.5822802173894215 0.3397200426296185 1.0000   
         C         C         1.0       0.11536263141208081           0.5613236719296956 0.3157006392499549 1.0000   
         H         H         1.0       0.12467657794068732           0.6974887438984955 0.24762368630425136          1.0000   
         H         H         1.0       0.144584706936131   0.6628551567089468  0.12029735286585597          1.0000   
         H         H         1.0       0.17713228654775115           0.7093983492714474 0.08552029194542989          1.0000   
         H         H         1.0       0.1580297464655016  0.7452109760196641  0.2082501417120246 1.0000   
         H         H         1.0       0.08565829850863915           0.6233675498196618 0.10787956864582648          1.0000   
         H         H         1.0       0.0486546788098412  0.6203109123325969  0.053727460890077516         1.0000   
         H         H         1.0       0.03052466974689705           0.6607371324954989 0.17373449662297613          1.0000   
         H         H         1.0       0.0617705746470405  0.6584721773651795  0.2313549076981849 1.0000   
         H         H         1.0       0.15519565444716177           0.6482092560822978 0.20994298269122516          1.0000   
         H         H         1.0       0.15830060375851485           0.61082434912299   0.22428131505065577          1.0000   
         H         H         1.0       0.06389799872475077           0.5511828210112029 0.2108639465125233 1.0000   
         H         H         1.0       0.0600872234043599  0.5875712935534295  0.1875160457567897 1.0000   
         H         H         1.0       0.21839514601555243           0.5982932347898859 0.2795094966554724 1.0000   
         H         H         1.0       0.16985724531612556           0.5791151034458037 0.308617377154005  1.0000   
         H         H         1.0       0.13980218339556427           0.5615994287229126 0.14788704581824083          1.0000   
         H         H         1.0       0.18653533293079727           0.5733801892975493 0.11729300748271299          1.0000   
         H         H         1.0       0.05735847495383073           0.5254376380140442 0.2821904303908509 1.0000   
         H         H         1.0       0.01783562329969124           0.4776992329905444 0.2745543197153396 1.0000   
         H         H         1.0       0.0741605405585124  0.4648224860522306  0.19200976401103734          1.0000   
         H         H         1.0       0.11444120017920545           0.5128805934164818 0.20015967760532458          1.0000   
         H         H         1.0       0.11204731570985516           0.5235897739885476 0.3314666074627432 1.0000   
         H         H         1.0       0.12276151491802656           0.5353056807617367 0.4333142112041299 1.0000   
         H         H         1.0       0.11472173293918875           0.600731158108001  0.41094854871071645          1.0000   
         H         H         1.0       0.11175585287134382           0.5950690310106743 0.314929054845836  1.0000   
         C         C         1.0       0.13419288177776711           0.7100855484063688 0.6482412927059549 1.0000   
         C         C         1.0       0.10796507631336127           0.6843966878215    0.636840340435497  1.0000   
         C         C         1.0       0.10201308413932653           0.6612807221420358 0.6617433215611825 1.0000   
         C         C         1.0       0.12261945293440113           0.6619570064243836 0.6945179407071389 1.0000   
         C         C         1.0       0.14628126821864207           0.6878976221840832 0.7122928110227744 1.0000   
         C         C         1.0       0.15289934387209891           0.7120555500352778 0.6884216675160179 1.0000   
         H         H         1.0       0.09205754650627274           0.6813668725097668 0.6055839670652906 1.0000   
         H         H         1.0       0.08313291930342048           0.6406940999035947 0.6461033094156632 1.0000   
         H         H         1.0       0.1592703590653204  0.6881378090761305  0.7474043733952259 1.0000   
         H         H         1.0       0.17320875306832262           0.7325338333782654 0.6989937556691352 1.0000   
         C         C         1.0       0.1734119046552116  0.6541232954483809  0.7199532418235737 1.0000   
         C         C         1.0       0.14385383429138576           0.635092716488875  0.7379517879300771 1.0000   
         C         C         1.0       0.13932597738429742           0.6153363225458668 0.772963550788932  1.0000   
         C         C         1.0       0.15952197874448215           0.6089608636544567 0.7744312059643281 1.0000   
         C         C         1.0       0.18773680711212193           0.6267951410405332 0.7521316526041614 1.0000   
         C         C         1.0       0.19538538709559816           0.649942060561786  0.7262743137765052 1.0000   
         C         C         1.0       0.11805860455269346           0.6345049364563532 0.7101209500749095 1.0000   
         C         C         1.0       0.11337852552050687           0.6163596270770427 0.6570684821401022 1.0000   
         C         C         1.0       0.09891058277925002           0.5881888292520798 0.6598557935215559 1.0000   
         C         C         1.0       0.09405232530361896           0.5725175789667455 0.6138897326941262 1.0000   
         C         C         1.0       0.10075050315186918           0.5855262489624016 0.564890498762569  1.0000   
         C         C         1.0       0.11648206843358833           0.6142529525352541 0.5601843772458456 1.0000   
         C         C         1.0       0.12322328712569042           0.6291546153223775 0.6064617914093737 1.0000   
         C         C         1.0       0.0946232865810892  0.6307981347600975  0.8027197283914734 1.0000   
         C         C         1.0       0.07568236696781194           0.614332111139667  0.8452058301270332 1.0000   
         C         C         1.0       0.05061826674645098           0.588285269574313  0.8369432165396448 1.0000   
         C         C         1.0       0.04458000858778033           0.5795663855901569 0.7842209457978749 1.0000   
         C         C         1.0       0.06165657861613094           0.5940155120855554 0.7422916353046451 1.0000   
         C         C         1.0       0.08914714244424649           0.6198354523914371 0.7509907396581199 1.0000   
         C         C         1.0       0.033576492429155724          0.5699366571778913 0.88730904294924   1.0000   
         C         C         1.0       0.11591056638782149           0.5829205568308861 0.9342942329948988 1.0000   
         C         C         1.0       0.10368349256158016           0.5911118116972537 0.9678179911496766 1.0000   
         C         C         1.0       0.07662444916425848           0.5849307564546582 0.9596726584593933 1.0000   
         C         C         1.0       0.060203099502405655          0.5693477516853651 0.9136627827176218 1.0000   
         C         C         1.0       0.07282977742597341           0.5597126041243577 0.8829265556219207 1.0000   
         C         C         1.0       0.09940738772240754           0.5640638623463109 0.8938805257261514 1.0000   
         C         C         1.0       0.0053733987792470295         0.5386532030627864 0.8752300200170534 1.0000   
         C         C         1.0       0.9821128005760734  0.5345515586753798  0.8437799407042877 1.0000   
         C         C         1.0       0.9597093375761836  0.5085242371414923  0.8238126995381733 1.0000   
         C         C         1.0       0.9574676468428547  0.48505851818429413           0.8420888528427404 1.0000   
         C         C         1.0       0.9781791957891038  0.489208990498952   0.8780765225337522 1.0000   
         C         C         1.0       0.999999851818063   0.5152059211109629  0.8973637240143315 1.0000   
         C         C         1.0       0.009627366725692976          0.5693475211550005 0.9745192804959486 1.0000   
         C         C         1.0       0.9980937951324338  0.578538474282942   0.00926392077275362          1.0000   
         C         C         1.0       0.0016787873817223353         0.6027937433041485 0.0007581005154204679        1.0000   
         C         C         1.0       0.012029506422133629          0.6146638438203759 0.9509049680444857 1.0000   
         C         C         1.0       0.02410844876761775           0.606294547206184  0.9162190881622397 1.0000   
         C         C         1.0       0.02138220224684928           0.5819549513865463 0.9266378967805744 1.0000   
         H         H         1.0       0.17623873009193258           0.66935560559641   0.6906654390021606 1.0000   
         H         H         1.0       0.1200752505116931  0.6006492072949737  0.7941571180358112 1.0000   
         H         H         1.0       0.15092895416333385           0.5896421146987149 0.7905482813879483 1.0000   
         H         H         1.0       0.21677800743719922           0.6634417060186976 0.706224388973435  1.0000   
         H         H         1.0       0.09278823581385653           0.5793175138313373 0.6994786155377668 1.0000   
         H         H         1.0       0.08141169728189879           0.5500762114911957 0.6112816732611016 1.0000   
         H         H         1.0       0.12300747658530509           0.6247182746063313 0.5192727994676029 1.0000   
         H         H         1.0       0.13476016718222605           0.6512089783773867 0.5967304138979375 1.0000   
         H         H         1.0       0.11421392176042988           0.6514204924760328 0.8100744085678385 1.0000   
         H         H         1.0       0.08478907834152816           0.622341450521046  0.8842058223943385 1.0000   
         H         H         1.0       0.025711704411379932          0.5579821477607063 0.7791923671920863 1.0000   
         H         H         1.0       0.05435635969894337           0.5899590484344762 0.7008466544218633 1.0000   
         H         H         1.0       0.11626584070980783           0.6056598804533975 0.0006541635831533998        1.0000   
         H         H         1.0       0.06658112048986942           0.5934687763018122 0.9832326109275986 1.0000   
         H         H         1.0       0.05943152672065377           0.5486263528029245 0.845039967330636  1.0000   
         H         H         1.0       0.10768794673609672           0.5541724157164701 0.8728927473343882 1.0000   
         H         H         1.0       0.9869286579476299  0.5537518856147026  0.8294597389696996 1.0000   
         H         H         1.0       0.9433976357119189  0.5065187901332995  0.7955248286503275 1.0000   
         H         H         1.0       0.9795797671222496  0.47388229851089925           0.8986699746923904 1.0000   
         H         H         1.0       0.015367602216223908          0.5165559394664022 0.925613857686486  1.0000   
         H         H         1.0       0.0062881347282814914         0.5499376867730379 0.9835956589590273 1.0000   
         H         H         1.0       0.9852650445914093  0.5650838021534533  0.04232425608642343          1.0000   
         H         H         1.0       0.013573719044605026          0.6328724465392471 0.9400788826598124 1.0000   
         H         H         1.0       0.03463836592120817           0.6202481180700039 0.8811180948398321 1.0000   
         C         C         1.0       0.20714385018975115           0.7251167541735425 0.4728130747523786 1.0000   
         C         C         1.0       0.23345212798639747           0.7417986119533524 0.497997772989143  1.0000   
         C         C         1.0       0.24610608896134206           0.7303507288136611 0.52460181590482   1.0000   
         C         C         1.0       0.23206318470748832           0.7019133128158397 0.5244897772885858 1.0000   
         C         C         1.0       0.20585237992753588           0.6855187598137722 0.4941553974572179 1.0000   
         C         C         1.0       0.19346957311037655           0.6964813179640774 0.4697308573447248 1.0000   
         H         H         1.0       0.24580423871317725           0.764174727317134  0.4991753064395009 1.0000   
         H         H         1.0       0.2675752840554897  0.7442193836726494  0.5434722862893824 1.0000   
         H         H         1.0       0.19544389687488253           0.6644087394189009 0.4863400375767651 1.0000   
         H         H         1.0       0.1740457097179982  0.6821540496150129  0.44669475872427983          1.0000   
         C         C         1.0       0.2022116720446154  0.6431089237113321  0.5808602192261513 1.0000   
         C         C         1.0       0.23258651059976015           0.660957742419445  0.5697411947162426 1.0000   
         C         C         1.0       0.2498485843312486  0.6529647245066292  0.5889806729762331 1.0000   
         C         C         1.0       0.2381085180863988  0.6318456783733732  0.6253075033935295 1.0000   
         C         C         1.0       0.2090995388026583  0.6162528805059247  0.6390420840265497 1.0000   
         C         C         1.0       0.1907817511955367  0.6218045547716913  0.6159316956247538 1.0000   
         C         C         1.0       0.25059458778770144           0.6917008435108492 0.5484743669019609 1.0000   
         C         C         1.0       0.2689525417152266  0.7100537186295419  0.601604656162233  1.0000   
         C         C         1.0       0.297813865688234   0.7182056220756355  0.6103040601077105 1.0000   
         C         C         1.0       0.31213150506031445           0.7273602186623064 0.6576013637671706 1.0000   
         C         C         1.0       0.297948032478803   0.7265453236785113  0.7024817136291123 1.0000   
         C         C         1.0       0.26937562235626433           0.720087597997509  0.696036140173722  1.0000   
         C         C         1.0       0.2551075818877766  0.7111918109814714  0.6440837587335803 1.0000   
         C         C         1.0       0.25798571120707203           0.6756806706674271 0.4613673415960802 1.0000   
         C         C         1.0       0.2733947342346855  0.676431783228627   0.4181477018562383 1.0000   
         C         C         1.0       0.30282353506329074           0.6998116136919731 0.41013743589971974          1.0000   
         C         C         1.0       0.31471521508142714           0.7222488515396546 0.44593232606366057          1.0000   
         C         C         1.0       0.29757905995229295           0.7219035787180217 0.48377507651046736          1.0000   
         C         C         1.0       0.27096958454839276           0.6978286013224804 0.4964480774616583 1.0000   
         C         C         1.0       0.32223420369897676           0.7025053358337419 0.3587144446568275 1.0000   
         C         C         1.0       0.2780984350644401  0.6331177586226844  0.2455824365256956 1.0000   
         C         C         1.0       0.28956010934700127           0.6588684018458042 0.22660290185717308          1.0000   
         C         C         1.0       0.30256779428669284           0.6814146345106108 0.2626559579371188 1.0000   
         C         C         1.0       0.3038504326246118  0.6777000635675804  0.31738294528155336          1.0000   
         C         C         1.0       0.2951616442981274  0.6513768423805069  0.33282647851246744          1.0000   
         C         C         1.0       0.28130827410845854           0.6296248539740127 0.2984392318298273 1.0000   
         C         C         1.0       0.35110976904582714           0.7033117214148801 0.37264833476162657          1.0000   
         C         C         1.0       0.36984393152522604           0.7055179740751951 0.33435202312083884          1.0000   
         C         C         1.0       0.3972210322154594  0.7103031125210021  0.3486870564224428 1.0000   
         C         C         1.0       0.4042328551660908  0.7106588168063799  0.4019875340644836 1.0000   
         C         C         1.0       0.3833622471833526  0.7053708501283045  0.43885397836511164          1.0000   
         C         C         1.0       0.35877655707924855           0.7028066656972844 0.4263751384489077 1.0000   
         C         C         1.0       0.3096912320459749  0.7356597711294832  0.31684319328454597          1.0000   
         C         C         1.0       0.3186669313570574  0.7617348887227036  0.3039137454395792 1.0000   
         C         C         1.0       0.3484122046648062  0.7848170364543717  0.3058048917870146 1.0000   
         C         C         1.0       0.36918362838529806           0.7821545932858148 0.32414722885754477          1.0000   
         C         C         1.0       0.36119400356799275           0.7564241616074058 0.3360327919225168 1.0000   
         C         C         1.0       0.3317434093377676  0.7316390738494853  0.3313568578465634 1.0000   
         H         H         1.0       0.18755755044100267           0.6494262554306544 0.5735834136248569 1.0000   
         H         H         1.0       0.2731288299831081  0.6667753472400338  0.583242176825422  1.0000   
         H         H         1.0       0.25517560332310896           0.6312131549949523 0.6435044308723228 1.0000   
         H         H         1.0       0.16822108162119398           0.612373309598412  0.6269434880537923 1.0000   
         H         H         1.0       0.30826494231506213           0.7134411750894047 0.5797142606750916 1.0000   
         H         H         1.0       0.33445183789616    0.7322099575655825  0.6586882991866657 1.0000   
         H         H         1.0       0.25679629258824715           0.7176514949545624 0.7322263462411489 1.0000   
         H         H         1.0       0.23066442598226755           0.7019026198917648 0.6433989002001008 1.0000   
         H         H         1.0       0.2359219103617842  0.6580467445321788  0.46654745836017336          1.0000   
         H         H         1.0       0.26195861282905475           0.6605068694528418 0.3895074551071431 1.0000   
         H         H         1.0       0.3366481741122887  0.7404637380157497  0.4471256063284546 1.0000   
         H         H         1.0       0.31018222895624176           0.7403204734729522 0.5106075477001696 1.0000   
         H         H         1.0       0.2846180801430391  0.6604536645671577  0.18609419695881824          1.0000   
         H         H         1.0       0.310387078642803   0.7011874386719477  0.24984500055541983          1.0000   
         H         H         1.0       0.29936834408295826           0.6477313462086424 0.372973907414611  1.0000   
         H         H         1.0       0.275642672996178   0.6114415405561163  0.3117897087058985 1.0000   
         H         H         1.0       0.3659573088782277  0.7075721888466401  0.29427014129190204          1.0000   
         H         H         1.0       0.41459191188670086           0.7166669771948669 0.3194549100216285 1.0000   
         H         H         1.0       0.3860247393715634  0.7058007326413727  0.48042970156008846          1.0000   
         H         H         1.0       0.3434415437410754  0.6982885125528627  0.45932106837824616          1.0000   
         H         H         1.0       0.2861954726081249  0.7192873891707263  0.3187087737492985 1.0000   
         H         H         1.0       0.30140554306926376           0.7624519913271387 0.28879038749946184          1.0000   
         H         H         1.0       0.3927760045768837  0.8007979341066847  0.33064040117430443          1.0000   
         H         H         1.0       0.379392760585638   0.7563339360945623  0.348054547581283  1.0000   
         C         C         1.0       0.36123064383518233           0.8029994897268271 0.88944040775286   1.0000   
         C         C         1.0       0.37722465705931835           0.8068080939881851 0.9353389770479821 1.0000   
         C         C         1.0       0.36425370233948157           0.7977845254330282 0.9835088052257754 1.0000   
         C         C         1.0       0.3331813442400568  0.7841513648770257  0.9882672902645012 1.0000   
         C         C         1.0       0.31657012538018436           0.7769090790611443 0.9428320263016962 1.0000   
         C         C         1.0       0.3306386146362188  0.7863700428390997  0.8940794020201677 1.0000   
         H         H         1.0       0.4014215823970735  0.8175415099164478  0.9337901101958858 1.0000   
         H         H         1.0       0.3756161325463853  0.7982309760026024  0.01868692912423109          1.0000   
         H         H         1.0       0.29234330847383705           0.7615379417982424 0.9413457368426521 1.0000   
         H         H         1.0       0.3156462633615552  0.7782505011086152  0.8615419183809482 1.0000   
         C         C         1.0       0.2852703676749177  0.7911893539200867  0.027940626000343638         1.0000   
         C         C         1.0       0.28655539780554257           0.7715757982920252 0.0530893341413905 1.0000   
         C         C         1.0       0.2672289268386574  0.7562735308230929  0.09397410876373913          1.0000   
         C         C         1.0       0.24341605410012893           0.7566868799045557 0.10479337559214441          1.0000   
         C         C         1.0       0.23647171210374407           0.7702208113309794 0.07083216438231288          1.0000   
         C         C         1.0       0.2589539157357023  0.7895443659105295  0.03574105473525502          1.0000   
         C         C         1.0       0.31390297379606985           0.7693179665824101 0.04247507774255421          1.0000   
         C         C         1.0       0.33325638392729584           0.7849333038716098 0.09329086854213497          1.0000   
         C         C         1.0       0.33998519264873067           0.7720158637010408 0.12801336886078607          1.0000   
         C         C         1.0       0.35573755279638297           0.7843972365474416 0.17446919217902435          1.0000   
         C         C         1.0       0.36565733505747056           0.8106888029250235 0.18720647434526663          1.0000   
         C         C         1.0       0.35881247081394185           0.8242469967823483 0.1527371517015254 1.0000   
         C         C         1.0       0.3428516764585795  0.8117150559683154  0.10730490747801857          1.0000   
         C         C         1.0       0.27125084300769475           0.7151199822699706 0.016835936948355057         1.0000   
         C         C         1.0       0.26353090156555725           0.689016181365024  0.00446639444251784          1.0000   
         C         C         1.0       0.28484960736911813           0.6837392539003415 0.0004898097907071186        1.0000   
         C         C         1.0       0.31369381752904774           0.7060318770647915 0.011294468469279728         1.0000   
         C         C         1.0       0.3199542004503686  0.7300131981836885  0.030339309773667056         1.0000   
         C         C         1.0       0.3003307399343263  0.7361018866171659  0.0328863909380539 1.0000   
         C         C         1.0       0.27880951034429674           0.6549161983896759 0.9816498345562716 1.0000   
         C         C         1.0       0.18489648269118444           0.5862879008311731 0.9819057460473005 1.0000   
         C         C         1.0       0.2041430575990522  0.5874203760718432  0.9463377813603604 1.0000   
         C         C         1.0       0.2353135792572507  0.6068698372467558  0.9488424631272907 1.0000   
         C         C         1.0       0.2462966899484807  0.626942867631055   0.9892643457717415 1.0000   
         C         C         1.0       0.22715045245559606           0.624049525293582  0.028742352634881563         1.0000   
         C         C         1.0       0.1966296421543846  0.6034225027395652  0.025047070096207547         1.0000   
         C         C         1.0       0.2989787642243774  0.6489474256371551  0.012607377880232251         1.0000   
         C         C         1.0       0.309282615358329   0.6355858660306315  0.9868740799099478 1.0000   
         C         C         1.0       0.327546910654009   0.6310320709965976  0.013593989631849102         1.0000   
         C         C         1.0       0.3308576996032993  0.634789993427305   0.06758963811663565          1.0000   
         C         C         1.0       0.3195745194156453  0.6462974119891898  0.09325632934094474          1.0000   
         C         C         1.0       0.3014837185408136  0.6512111064135195  0.06926732764741628          1.0000   
         C         C         1.0       0.262958456452313   0.6601553877014229  0.886072987394803  1.0000   
         C         C         1.0       0.2691892702669618  0.67074959658391    0.8361369101519153 1.0000   
         C         C         1.0       0.29825090946086713           0.6861775665908577 0.8152088353786285 1.0000   
         C         C         1.0       0.3194326026352124  0.6899541442661131  0.8484540599074417 1.0000   
         C         C         1.0       0.31431306156174776           0.6794798499569766 0.8988543423819445 1.0000   
         C         C         1.0       0.2855397013076975  0.663734023116187   0.9202690987254043 1.0000   
         H         H         1.0       0.30197363541379063           0.8051013357778627 0.9976181667101225 1.0000   
         H         H         1.0       0.2682606133969874  0.7407508606841331  0.11126371005399172          1.0000   
         H         H         1.0       0.22712859108443623           0.7421336699921884 0.13323338596720302          1.0000   
         H         H         1.0       0.25679569520425805           0.8032504591211476 0.012991185679427808         1.0000   
         H         H         1.0       0.33053994604828296           0.7504457804225071 0.12602968653267332          1.0000   
         H         H         1.0       0.3597422021761785  0.7728172323447159  0.20248872759759687          1.0000   
         H         H         1.0       0.36483378898777696           0.8449735618708674 0.15890621413447062          1.0000   
         H         H         1.0       0.3356614341936584  0.8228539853707753  0.08922542063337247          1.0000   
         H         H         1.0       0.2552913646681481  0.7193790115059683  0.013782581316264197         1.0000   
         H         H         1.0       0.24066594981044323           0.6740858755506541 0.9844073978844279 1.0000   
         H         H         1.0       0.33318091403850464           0.7066993505170303 0.00700853182649519          1.0000   
         H         H         1.0       0.3428229431742871  0.7446609145248987  0.03724564371124783          1.0000   
         H         H         1.0       0.1952033051647347  0.5748144826767885  0.9111369292086278 1.0000   
         H         H         1.0       0.2519898627249375  0.6098153156518918  0.919152094280049  1.0000   
         H         H         1.0       0.23489774157843757           0.6373030069098402 0.06240170116004751          1.0000   
         H         H         1.0       0.1843578837560656  0.605702843605473   0.056984721420622275         1.0000   
         H         H         1.0       0.3058841398737284  0.6305176643363108  0.943184228234659  1.0000   
         H         H         1.0       0.33737726485571845           0.6215606718259286 0.9929636002600898 1.0000   
         H         H         1.0       0.3233762935026585  0.651277638279485   0.1351653221227327 1.0000   
         H         H         1.0       0.29105524106697417           0.6577086551956213 0.09323234417383208          1.0000   
         H         H         1.0       0.2408606272775527  0.648920799258766   0.898230910925455  1.0000   
         H         H         1.0       0.25125229381343583           0.6676690628540054 0.8132290131173435 1.0000   
         H         H         1.0       0.34155221213810666           0.6975164739486363 0.8335852826129814 1.0000   
         H         H         1.0       0.33170616896501337           0.6851306215030486 0.9246658739995247 1.0000   
         C         C         1.0       0.7954857060937743  0.2991856621195213  0.36275973872760464          1.0000   
         C         C         1.0       0.8234064323540828  0.3191983046567366  0.386736678135824  1.0000   
         C         C         1.0       0.8428598962617266  0.31364580819084725           0.39984806040052984          1.0000   
         C         C         1.0       0.8348319876910404  0.28702195821065524           0.3917604556438599 1.0000   
         C         C         1.0       0.8073421539078959  0.2667887486107892  0.36848747520894537          1.0000   
         C         C         1.0       0.7874315936510095  0.2720645400114815  0.3580249117314657 1.0000   
         H         H         1.0       0.8301282643023137  0.34057999701954694           0.3973164053771499 1.0000   
         H         H         1.0       0.8647172308995041  0.33098172430696077           0.41213559227434265          1.0000   
         H         H         1.0       0.8023906405612543  0.24592331872495693           0.36064663464235563          1.0000   
         H         H         1.0       0.7660762522066057  0.2544229545631414  0.34299791508800165          1.0000   
         C         C         1.0       0.8193981158713719  0.23804958303896068           0.4679168014672895 1.0000   
         C         C         1.0       0.8405196906177542  0.24842837240164187           0.4266989452522001 1.0000   
         C         C         1.0       0.8537259008776467  0.23476703748794686           0.41868466967356577          1.0000   
         C         C         1.0       0.8449196478154507  0.2123831565548778  0.44953859111531086          1.0000   
         C         C         1.0       0.8233456276871574  0.20307713937555064           0.4881309216224143 1.0000   
         C         C         1.0       0.8097779860933139  0.21544570937672938           0.49671929467630693          1.0000   
         C         C         1.0       0.8558045264850985  0.27761104848177254           0.3980981224638297 1.0000   
         C         C         1.0       0.8813096586953524  0.2953808869879323  0.4441621342438509 1.0000   
         C         C         1.0       0.9079855266956363  0.29902512671880643           0.43853071639442476          1.0000   
         C         C         1.0       0.9323165938583622  0.3180755084263992  0.46685537293607593          1.0000   
         C         C         1.0       0.929384159034565   0.33145135716064    0.5082608526507502 1.0000   
         C         C         1.0       0.9023224262182069  0.3259388052431011  0.5197190263463188 1.0000   
         C         C         1.0       0.8784248654613979  0.3072257204223295  0.4897211949136013 1.0000   
         C         C         1.0       0.860144823738345   0.2637464617878869  0.29945078224899135          1.0000   
         C         C         1.0       0.8721634686774948  0.2717384977576196  0.24914041378713034          1.0000   
         C         C         1.0       0.8921430076038899  0.2985250306543751  0.23553904044931276          1.0000   
         C         C         1.0       0.901596978034663   0.3188341181609165  0.2752125359453558 1.0000   
         C         C         1.0       0.8907031019759162  0.31120589091451545           0.3253501636663579 1.0000   
         C         C         1.0       0.8705090833025949  0.2832941820694827  0.33947283088699787          1.0000   
         C         C         1.0       0.8993383363220222  0.30934643851499094           0.17513506023500092          1.0000   
         C         C         1.0       0.9265832058313089  0.2787591805270226  0.045606640629752844         1.0000   
         C         C         1.0       0.913771587835056   0.2918883369933657  0.035019547493762244         1.0000   
         C         C         1.0       0.9028798796418235  0.29939874171580455           0.07651900148794978          1.0000   
         C         C         1.0       0.9044464977320273  0.293719850230207   0.1295999765451139 1.0000   
         C         C         1.0       0.9130167850231925  0.27657250063561317           0.13849799547118513          1.0000   
         C         C         1.0       0.9242687958275395  0.26939265590750533           0.0967420210666825 1.0000   
         C         C         1.0       0.9323028859577762  0.3386960704947351  0.16936822252521444          1.0000   
         C         C         1.0       0.9383648591580354  0.36211809703117515           0.1416699493521532 1.0000   
         C         C         1.0       0.9644690771177639  0.3879203262855382  0.1419638080752733 1.0000   
         C         C         1.0       0.9870382863468175  0.3910880956458132  0.1716037031982507 1.0000   
         C         C         1.0       0.9839171416499003  0.3691010324783293  0.19791281078879513          1.0000   
         C         C         1.0       0.9569440602572084  0.34292537710454585           0.19373285662587666          1.0000   
         C         C         1.0       0.8671740504028632  0.327502102568199   0.1693036202834636 1.0000   
         C         C         1.0       0.8417725592386011  0.32474148097957106           0.16122520399277307          1.0000   
         C         C         1.0       0.8165779964101382  0.29984075246440056           0.14164629040758125          1.0000   
         C         C         1.0       0.8191424298104014  0.27857149587478475           0.13499780565514952          1.0000   
         C         C         1.0       0.8451382968989957  0.28175351315850067           0.14068834992810048          1.0000   
         C         C         1.0       0.8695344833931277  0.3060265531598405  0.16194754311501156          1.0000   
         H         H         1.0       0.8088174650393377  0.24776987358624109           0.4748459554772831 1.0000   
         H         H         1.0       0.8695918901456369  0.24210759887199038           0.3905333393147004 1.0000   
         H         H         1.0       0.8556134255323256  0.2028106172970544  0.44932910987370983          1.0000   
         H         H         1.0       0.7912066917913452  0.207655515193442   0.5249585654008045 1.0000   
         H         H         1.0       0.9108766211762757  0.28937202651158    0.404499260152703  1.0000   
         H         H         1.0       0.9547833255450414  0.32369929788455043           0.45614462186327503          1.0000   
         H         H         1.0       0.8960865518462947  0.3331257257277928  0.5531587287152937 1.0000   
         H         H         1.0       0.8596486822381569  0.3064773695722564  0.5017299339130974 1.0000   
         H         H         1.0       0.8443052445832306  0.24185838074058363           0.3090505367745677 1.0000   
         H         H         1.0       0.8636925674646874  0.25611772951546896           0.21962952756139353          1.0000   
         H         H         1.0       0.9166724176020405  0.34056370629728683           0.265004482195261  1.0000   
         H         H         1.0       0.8964679487621096  0.32833050535303765           0.3538035305863686 1.0000   
         H         H         1.0       0.9119338460590357  0.29691759543780183           0.9938833597223937 1.0000   
         H         H         1.0       0.8945509855143201  0.31097798534189913           0.06807985985590537          1.0000   
         H         H         1.0       0.9115883323673514  0.2699470561867467  0.17844680461427712          1.0000   
         H         H         1.0       0.9344970047125413  0.25939915199342994           0.10740523673632409          1.0000   
         H         H         1.0       0.9210679377212697  0.3604946200653172  0.11972448574080397          1.0000   
         H         H         1.0       0.968580484923858   0.4062826973946114  0.12084793463928013          1.0000   
         H         H         1.0       0.00102239107785973           0.37038042684647027          0.22169276500212778          1.0000   
         H         H         1.0       0.9543618530979836  0.3271818432999741  0.219867026178986  1.0000   
         H         H         1.0       0.8857023972658136  0.3458162204775458  0.18503196027464225          1.0000   
         H         H         1.0       0.8417782007999257  0.34248202120295024           0.16832886160055316          1.0000   
         H         H         1.0       0.7998369944300089  0.25934916452905615           0.12593169966706255          1.0000   
         H         H         1.0       0.8418089175741009  0.2621357974853302  0.13678625065827413          1.0000   
         C         C         1.0       0.7630897080032477  0.23339910965748792           0.7587226314880474 1.0000   
         C         C         1.0       0.7721744649285669  0.25613241283337124           0.7889869851765533 1.0000   
         C         C         1.0       0.7930301297730522  0.26463924916579457           0.8304862658192678 1.0000   
         C         C         1.0       0.8012255509410696  0.2481390921571884  0.8458299106205891 1.0000   
         C         C         1.0       0.7922550870874515  0.22619955144195486           0.8137665029982732 1.0000   
         C         C         1.0       0.7727280549526755  0.21758852014931562           0.77272963909113   1.0000   
         H         H         1.0       0.767970770135243   0.27171696118461797           0.7750482284913585 1.0000   
         H         H         1.0       0.7996482900669182  0.28183099130350076           0.8537940370851997 1.0000   
         H         H         1.0       0.7991433693952162  0.21342293809568516           0.8201406140849649 1.0000   
         H         H         1.0       0.7684965133379027  0.2007823330234216  0.7490511032629672 1.0000   
         C         C         1.0       0.8025946656785695  0.207178301366434   0.9234197336384595 1.0000   
         C         C         1.0       0.8270465912284714  0.23506117853189532           0.9231518460997752 1.0000   
         C         C         1.0       0.8519635122034708  0.24308948560993474           0.9540657883217164 1.0000   
         C         C         1.0       0.8516646814456253  0.22346104685861815           0.9818146118843556 1.0000   
         C         C         1.0       0.8295802729273912  0.19582474634056624           0.9798599401786177 1.0000   
         C         C         1.0       0.8039083178720893  0.18829749958511005           0.9525695933074401 1.0000   
         C         C         1.0       0.8240636541740063  0.2576745441037808  0.8961113295634565 1.0000   
         C         C         1.0       0.8143446398923311  0.26720798833698156           0.9492548251768522 1.0000   
         C         C         1.0       0.8344339270048348  0.28577887454165984           0.9854847933437227 1.0000   
         C         C         1.0       0.8289843620873225  0.3010616728897742  0.019440994777831566         1.0000   
         C         C         1.0       0.8004449510027499  0.2919735560861997  0.026993556313560374         1.0000   
         C         C         1.0       0.7785081605206743  0.2692262886935731  0.9957643521094584 1.0000   
         C         C         1.0       0.7850789591659737  0.2574083416198347  0.9570969535412203 1.0000   
         C         C         1.0       0.870263522087863   0.2757989288161186  0.8402992669618202 1.0000   
         C         C         1.0       0.8964791402628346  0.29739541205662223           0.8169549855381245 1.0000   
         C         C         1.0       0.9089351851969455  0.32500521065539506           0.8280747996368025 1.0000   
         C         C         1.0       0.8939048179636041  0.33100838154933115           0.861652107281279  1.0000   
         C         C         1.0       0.8652820837716562  0.3092537583387288  0.8777371213496357 1.0000   
         C         C         1.0       0.8543245924743362  0.2822451990063705  0.8701595225214313 1.0000   
         C         C         1.0       0.9402496710948341  0.34939326346531396           0.8013473692267595 1.0000   
         C         C         1.0       0.0145947230554202  0.36177619298896174           0.8894969661684915 1.0000   
         C         C         1.0       0.9951215969870881  0.33756235193815615           0.8608621115768205 1.0000   
         C         C         1.0       0.9709648641355344  0.33325987248514094           0.8351175747839189 1.0000   
         C         C         1.0       0.9646422398547434  0.35203271556791416           0.8418825395883235 1.0000   
         C         C         1.0       0.9797240553185637  0.37335701682459765           0.8823127933167916 1.0000   
         C         C         1.0       0.005508421895259685          0.3784201375229984 0.9016483989515345 1.0000   
         C         C         1.0       0.9411829082694425  0.37646959535557667           0.7900710875829804 1.0000   
         C         C         1.0       0.9159587002657031  0.37383295621113977           0.7719942933555911 1.0000   
         C         C         1.0       0.9179085692253087  0.3974443540134391  0.7638597059034334 1.0000   
         C         C         1.0       0.9433668106680182  0.42329104873083845           0.7749952570651522 1.0000   
         C         C         1.0       0.9680264616507728  0.4257745704136853  0.7930128046525903 1.0000   
         C         C         1.0       0.9675268802555534  0.40217500931092887           0.7948721701086103 1.0000   
         C         C         1.0       0.9752384370125716  0.3584953347188731  0.7240185085613373 1.0000   
         C         C         1.0       0.9817375696071243  0.3568541419387904  0.6735886374929665 1.0000   
         C         C         1.0       0.9601602667091398  0.3419102372005422  0.6355730067400567 1.0000   
         C         C         1.0       0.9312248850734889  0.32629700084080604           0.6533792529883778 1.0000   
         C         C         1.0       0.9246306552907736  0.3282641057434416  0.7061951672130821 1.0000   
         C         C         1.0       0.9468061543198466  0.34475015700985107           0.7425773425901132 1.0000   
         H         H         1.0       0.7817407444121768  0.19981631398404343           0.904060164967559  1.0000   
         H         H         1.0       0.8712175755511893  0.264204353596472   0.9557089544677092 1.0000   
         H         H         1.0       0.8722743547340814  0.22954163717025006           0.00378326015363184          1.0000   
         H         H         1.0       0.7834686771811558  0.1666636918618015  0.9542333647661143 1.0000   
         H         H         1.0       0.8566119012740704  0.29176124720230423           0.9818316656519505 1.0000   
         H         H         1.0       0.8461497803975238  0.3162485556260497  0.043898031613896826         1.0000   
         H         H         1.0       0.7543520610865656  0.26060522002757325           0.9995175306730651 1.0000   
         H         H         1.0       0.7675639244706718  0.24021152678603935           0.9342310739857519 1.0000   
         H         H         1.0       0.8625190227343815  0.2549744226667787  0.8292103697459511 1.0000   
         H         H         1.0       0.908765688102127   0.2922050906774726  0.7893010503814104 1.0000   
         H         H         1.0       0.8999307786659225  0.35212722438079147           0.8671229458004659 1.0000   
         H         H         1.0       0.849758920757453   0.3134179457476825  0.8957303289159558 1.0000   
         H         H         1.0       0.9969777469043932  0.32008877430565613           0.8579810439408287 1.0000   
         H         H         1.0       0.9594160374334038  0.31753988453773585           0.8036035532750139 1.0000   
         H         H         1.0       0.9744189986690021  0.3869578487451386  0.8853953746812406 1.0000   
         H         H         1.0       0.020236079535563167          0.3974618813470023 0.9267895364184159 1.0000   
         H         H         1.0       0.8940483360259507  0.3539552983938396  0.7663786210053729 1.0000   
         H         H         1.0       0.8973162535485026  0.39458497576682955           0.7486263858810471 1.0000   
         H         H         1.0       0.9893900336450443  0.445884130605266   0.8026798420138317 1.0000   
         H         H         1.0       0.9876758512187912  0.4037549643308521  0.798740168639283  1.0000   
         H         H         1.0       0.994222227705879   0.37486195085353435           0.7468184701114486 1.0000   
         H         H         1.0       0.006168716011781372          0.3677587906544467 0.6590274838975817 1.0000   
         H         H         1.0       0.9127019743518501  0.31253187642741065           0.6228142886162559 1.0000   
         H         H         1.0       0.900618271430769   0.3155173072085244  0.7186594444106266 1.0000   
         C         C         1.0       0.9675590138149015  0.16286125193338022           0.5184243088889201 1.0000   
         C         C         1.0       0.9785160110906163  0.18463920896475855           0.4830252470315145 1.0000   
         C         C         1.0       0.9766060924238218  0.20610519131875712           0.4953634180906381 1.0000   
         C         C         1.0       0.962613870698773   0.20656030330454617           0.540530377811141  1.0000   
         C         C         1.0       0.9513103617837225  0.18433144611260474           0.574720326151301  1.0000   
         C         C         1.0       0.9535499661956781  0.16253162301438917           0.5640997594411121 1.0000   
         H         H         1.0       0.9878981018171141  0.18405352537606787           0.4449956731598133 1.0000   
         H         H         1.0       0.9862932672251844  0.2207434556462888  0.46376886724752375          1.0000   
         H         H         1.0       0.93741289139301    0.1824421111854523  0.6075165925142881 1.0000   
         H         H         1.0       0.9426945037189712  0.14425407084082545           0.5909550032868359 1.0000   
         C         C         1.0       0.8982619249051093  0.18652530068190615           0.5424630800954368 1.0000   
         C         C         1.0       0.919971972729325   0.21402026522562786           0.5563100327302299 1.0000   
         C         C         1.0       0.911417438647913   0.2299830830919152  0.5795440675286966 1.0000   
         C         C         1.0       0.8816126987091263  0.21885364753439837           0.5826227336653229 1.0000   
         C         C         1.0       0.8605509503893952  0.19215389355489154           0.567641234776149  1.0000   
         C         C         1.0       0.8687589115473782  0.17637052341115536           0.548760246451378  1.0000   
         C         C         1.0       0.9548855682216301  0.22810318504799018           0.551566911253105  1.0000   
         C         C         1.0       0.9637171440908733  0.25065576287256325           0.5046750069587932 1.0000   
         C         C         1.0       0.9776373050802489  0.2787845419042236  0.5137861290751077 1.0000   
         C         C         1.0       0.9844073909169073  0.29734219186187566           0.47501661000082646          1.0000   
         C         C         1.0       0.9770663413393006  0.28817046465245716           0.4227040235329309 1.0000   
         C         C         1.0       0.9624110537449668  0.2612308354317795  0.4104204785990329 1.0000   
         C         C         1.0       0.954006240289766   0.24164568480865412           0.4499039076862741 1.0000   
         C         C         1.0       0.9690886139389634  0.24616181304573    0.6499730258178621 1.0000   
         C         C         1.0       0.9898949118387647  0.2589440941430618  0.6924219088638162 1.0000   
         C         C         1.0       0.01820887391445991           0.2677397804835378 0.6826076354661422 1.0000   
         C         C         1.0       0.026846024582148686          0.268166398235556  0.630951853698347  1.0000   
         C         C         1.0       0.0068369221973438865         0.2553142568626132 0.5925941343203778 1.0000   
         C         C         1.0       0.9774591172406397  0.24422936871199044           0.6000068506982597 1.0000   
         C         C         1.0       0.04321399067947418           0.2803740611404262 0.7299616417369753 1.0000   
         C         C         1.0       0.05682282383692194           0.3461560267082675 0.8306196713045002 1.0000   
         C         C         1.0       0.058514915103944354          0.3261803320135518 0.8522666646621502 1.0000   
         C         C         1.0       0.05251673851252603           0.3051776723999295 0.8202163705156167 1.0000   
         C         C         1.0       0.045064792554024624          0.30183839338024177          0.7666730131486367 1.0000   
         C         C         1.0       0.04238984857270811           0.3223775439365381 0.7454147011756799 1.0000   
         C         C         1.0       0.04899890822006436           0.3444838935618732 0.7782331507327832 1.0000   
         C         C         1.0       0.07750580338541102           0.29901604308525376          0.7124667983194354 1.0000   
         C         C         1.0       0.0974229209227846  0.2977170768760303  0.7435363851960617 1.0000   
         C         C         1.0       0.12675519630792853           0.31187581001099146          0.7272901079246247 1.0000   
         C         C         1.0       0.13686166062067784           0.32762231918021995          0.6802325438637874 1.0000   
         C         C         1.0       0.11826897199857944           0.33118052492037986          0.6531350599903801 1.0000   
         C         C         1.0       0.09017456792595291           0.31902847297042014          0.6726150783626819 1.0000   
         C         C         1.0       0.006450410190677269          0.24023848248412058          0.7958134278869465 1.0000   
         C         C         1.0       0.9922218304144538  0.2139112722959855  0.8172940272022993 1.0000   
         C         C         1.0       0.0012803623015014143         0.1971743613465323 0.8035675864514971 1.0000   
         C         C         1.0       0.022170763995961185          0.20679718957535212          0.7635145032443768 1.0000   
         C         C         1.0       0.034575477650688136          0.2328420146141816 0.7397895457073006 1.0000   
         C         C         1.0       0.029105861399147503          0.2508035326295515 0.7577612734588175 1.0000   
         H         H         1.0       0.9048894847141774  0.17529179410939136           0.5222854105160246 1.0000   
         H         H         1.0       0.9284277168055016  0.251564036632215   0.5930965372419351 1.0000   
         H         H         1.0       0.87745431203754    0.2342167841934357  0.5963626771710735 1.0000   
         H         H         1.0       0.8503506707061492  0.15632751923998225           0.5361289504846893 1.0000   
         H         H         1.0       0.9828754568422483  0.2862315899659205  0.555005155279179  1.0000   
         H         H         1.0       0.994819501239811   0.3184499088377118  0.48672840548639507          1.0000   
         H         H         1.0       0.9537089839298509  0.2515160217120961  0.3710357951847576 1.0000   
         H         H         1.0       0.9407412374099567  0.21955096803089724           0.4439820100121614 1.0000   
         H         H         1.0       0.9451742287467669  0.23485652486130695           0.6613213948762948 1.0000   
         H         H         1.0       0.9854354082423742  0.2582915751815025  0.7339498137398465 1.0000   
         H         H         1.0       0.049649393725667235          0.275555645064423  0.6208986794288917 1.0000   
         H         H         1.0       0.014836135306045106          0.2547746720985191 0.5527493722556044 1.0000   
         H         H         1.0       0.0674106448253553  0.3289523737810032  0.8925500175072149 1.0000   
         H         H         1.0       0.056185285815745445          0.2904923023489725 0.8368553875542765 1.0000   
         H         H         1.0       0.03873213819798038           0.3227505236599894 0.703976377134338  1.0000   
         H         H         1.0       0.05134298984212049           0.36080458462193776          0.7567702818949592 1.0000   
         H         H         1.0       0.08777819018230715           0.2823405719207034 0.7770458085831071 1.0000   
         H         H         1.0       0.142626522567463   0.3116738602037349  0.7528130076234044 1.0000   
         H         H         1.0       0.12727019288427943           0.3458915630887665 0.6235427072817065 1.0000   
         H         H         1.0       0.0777074760159675  0.3226109891769967  0.6453211982408333 1.0000   
         H         H         1.0       0.9991373700549365  0.2524853450764245  0.812347811710706  1.0000   
         H         H         1.0       0.975593815276835   0.20787809000285326           0.8474791510404064 1.0000   
         H         H         1.0       0.027138840720121626          0.1927326908303762 0.7514503432630452 1.0000   
         H         H         1.0       0.047733445577552436          0.2365021710437578 0.7061599347823688 1.0000   
         C         C         1.0       0.955722955079846   0.13631010403558563           0.2104225404656399 1.0000   
         C         C         1.0       0.9761200701668821  0.14563930536728267           0.170854633863454  1.0000   
         C         C         1.0       0.977008611250135   0.16109953460271395           0.12955714632867066          1.0000   
         C         C         1.0       0.9574518239440578  0.16814240123260904           0.1274815027790741 1.0000   
         C         C         1.0       0.9384401145916945  0.1593407845894765  0.1710844358185979 1.0000   
         C         C         1.0       0.9363375237257028  0.14361536021024088           0.21274025347788994          1.0000   
         H         H         1.0       0.9915566649268303  0.13995540145676336           0.1696236122028565 1.0000   
         H         H         1.0       0.9921081817882853  0.16721348511630457           0.09648146726113582          1.0000   
         H         H         1.0       0.9217122187799225  0.1641018068485024  0.17050951570948247          1.0000   
         H         H         1.0       0.9197161902227363  0.1368914819264446  0.23957420025906684          1.0000   
         C         C         1.0       0.902979568129447   0.15896781958811496           0.06538756418846603          1.0000   
         C         C         1.0       0.9300781081091857  0.18525782754301248           0.06708817081818275          1.0000   
         C         C         1.0       0.9297024267580045  0.20662464640563294           0.04618651613145586          1.0000   
         C         C         1.0       0.9039850195443713  0.2017672477097854  0.02789486464050639          1.0000   
         C         C         1.0       0.8781637635760035  0.17533058812389618           0.024193054589682683         1.0000   
         C         C         1.0       0.8772748575238231  0.15375908487281756           0.04573999371213566          1.0000   
         C         C         1.0       0.9598242777221523  0.18843802392353662           0.0825051138437316 1.0000   
         C         C         1.0       0.9698318704380697  0.18460275170727763           0.026846420771306834         1.0000   
         C         C         1.0       0.9892498614852816  0.20636124235573244           0.9957187732815322 1.0000   
         C         C         1.0       0.0005825997043746867         0.20245166891874364          0.9515160207790996 1.0000   
         C         C         1.0       0.9884098415534047  0.1749287261154434  0.9340587875131506 1.0000   
         C         C         1.0       0.9684789465384768  0.15218999036213032           0.9662883316629355 1.0000   
         C         C         1.0       0.957716219575649   0.15749933747486186           0.011557664345535512         1.0000   
         C         C         1.0       0.9730575828105765  0.23119259733863498           0.14439326704546462          1.0000   
         C         C         1.0       0.994191553358169   0.25798479182936335           0.16143827676518877          1.0000   
         C         C         1.0       0.02350569346017184           0.2716142014745569 0.15044768677363313          1.0000   
         C         C         1.0       0.03286944276486414           0.2573495448047919 0.12975941095069765          1.0000   
         C         C         1.0       0.013861119411734624          0.23144245185230214          0.11159427896452812          1.0000   
         C         C         1.0       0.9832386395734508  0.21924271338495444           0.11111995503772443          1.0000   
         C         C         1.0       0.048258660340529724          0.3048586062077699 0.16144906755580382          1.0000   
         C         C         1.0       0.0020269729338711073         0.3142085908608879 0.03422047825898833          1.0000   
         C         C         1.0       0.998018253806238   0.31964274899946754           0.08587910158748269          1.0000   
         C         C         1.0       0.013213019729142683          0.3184316601661753 0.1260688854131855 1.0000   
         C         C         1.0       0.03548449478298488           0.3152546964367849 0.11652880211445084          1.0000   
         C         C         1.0       0.04258875428174402           0.3147178792104758 0.06445815737036555          1.0000   
         C         C         1.0       0.025309020068076116          0.31327040271782935          0.021640239343407867         1.0000   
         C         C         1.0       0.08310775797983538           0.31705876243122116          0.15494818262281101          1.0000   
         C         C         1.0       0.09570549296846287           0.30666532917734823          0.1853292116791248 1.0000   
         C         C         1.0       0.12485476969640574           0.3160388897711533 0.18227679659275892          1.0000   
         C         C         1.0       0.1433190364155288  0.33731149207345734           0.14983447735518685          1.0000   
         C         C         1.0       0.1329071961817878  0.34934373987000045           0.1204591919834428 1.0000   
         C         C         1.0       0.10306186006016804           0.3387785641761409 0.12215946601855188          1.0000   
         C         C         1.0       0.05470294839015821           0.33881756614705516          0.23374295208005652          1.0000   
         C         C         1.0       0.04983676205048071           0.3453302903766229 0.28270970214144764          1.0000   
         C         C         1.0       0.034002175803210966          0.32529619331386733          0.321613243716943  1.0000   
         C         C         1.0       0.027165248569706923          0.2987256731942    0.3129158793378265 1.0000   
         C         C         1.0       0.031056280874343534          0.29256310996752677          0.26294419156143406          1.0000   
         C         C         1.0       0.04363746978046912           0.3108512633898236 0.2215137125457297 1.0000   
         H         H         1.0       0.9006975973107783  0.1391378848286302  0.07516973453409759          1.0000   
         H         H         1.0       0.9494463582749446  0.22657600730516392           0.03915445988989541          1.0000   
         H         H         1.0       0.9040365312219094  0.21772946011817257           0.011450977253196104         1.0000   
         H         H         1.0       0.8572401877409054  0.13285274042604864           0.04560431167936008          1.0000   
         H         H         1.0       0.9963415928936665  0.22613743926479954           0.006405779560105351         1.0000   
         H         H         1.0       0.017268116412641366          0.2202375262800091 0.9258199523117552 1.0000   
         H         H         1.0       0.958372782782911   0.13019499266941678           0.955142451696447  1.0000   
         H         H         1.0       0.9420256035573646  0.13999188640003724           0.036414490611227146         1.0000   
         H         H         1.0       0.9506280823940015  0.22457974184152424           0.15065196132651937          1.0000   
         H         H         1.0       0.9859050842720017  0.267203332499114   0.1834156082366919 1.0000   
         H         H         1.0       0.05632695563368251           0.26758461719060644          0.11977108714125295          1.0000   
         H         H         1.0       0.02334634963130111           0.2232911335851818 0.08763663880374373          1.0000   
         H         H         1.0       0.9835341316646565  0.32464556664283567           0.09563504651190514          1.0000   
         H         H         1.0       0.007395496925832079          0.3208267631074113 0.16507277938881618          1.0000   
         H         H         1.0       0.059410373380976766          0.3119999839323413 0.05044355539261259          1.0000   
         H         H         1.0       0.031221338518015784          0.3105380494364958 0.9819146973216939 1.0000   
         H         H         1.0       0.08317229254249714           0.2903076997093366 0.21269246784747564          1.0000   
         H         H         1.0       0.13321804823393002           0.3074241958885128 0.204569805558574  1.0000   
         H         H         1.0       0.1479814975293967  0.3667280895797523  0.09598030752911102          1.0000   
         H         H         1.0       0.09749890529935534           0.35077031551165316          0.10074654060704359          1.0000   
         H         H         1.0       0.0674724603168333  0.3552248260669707  0.20532562448702038          1.0000   
         H         H         1.0       0.052980395594377505          0.3660329205729769 0.2884870066821194 1.0000   
         H         H         1.0       0.01953957854818711           0.28366360577558264          0.34367962636939114          1.0000   
         H         H         1.0       0.02609765484093174           0.2721535992148152 0.26279238962533497          1.0000   
         C         C         1.0       0.698930498784245   0.4653227804212347  0.23796999020643655          1.0000   
         C         C         1.0       0.7225301679681307  0.47576880051413284           0.27275797849541056          1.0000   
         C         C         1.0       0.7186660419822264  0.46630044152695777           0.3219710829752987 1.0000   
         C         C         1.0       0.690769890031792   0.44736797319999555           0.34146828572700677          1.0000   
         C         C         1.0       0.6666528125628893  0.4373437608528345  0.306734605270312  1.0000   
         C         C         1.0       0.6711083434464402  0.44559380507377394           0.2546956052444304 1.0000   
         H         H         1.0       0.7447303802806409  0.4903713947338842  0.25998408817260205          1.0000   
         H         H         1.0       0.7373628714631971  0.4710744416905245  0.34577972958437564          1.0000   
         H         H         1.0       0.6460409933541442  0.4222118211365052  0.32001439051960623          1.0000   
         H         H         1.0       0.6517431173772724  0.4377929550783469  0.22930181722106857          1.0000   
         C         C         1.0       0.6651531641549131  0.4633797812563253  0.4326075982800031 1.0000   
         C         C         1.0       0.6594825790443305  0.4376598535363805  0.4320946139974588 1.0000   
         C         C         1.0       0.6379488542511901  0.4172632816310237  0.46556450653802256          1.0000   
         C         C         1.0       0.6225221131207853  0.4224595708057005  0.49940754200609444          1.0000   
         C         C         1.0       0.628018872684514   0.44775219731018023           0.49925197958890016          1.0000   
         C         C         1.0       0.6472344030441403  0.4675130893620212  0.4640483684669819 1.0000   
         C         C         1.0       0.682280997320089   0.43329709200269645           0.4003696396536038 1.0000   
         C         C         1.0       0.7076641049124853  0.4433985834099812  0.44470460593176564          1.0000   
         C         C         1.0       0.7035021202216463  0.42454101028832875           0.4803688932163705 1.0000   
         C         C         1.0       0.7234977258107207  0.4308288346947161  0.5189429913767625 1.0000   
         C         C         1.0       0.7481483297056166  0.45708834381517643           0.526030961828733  1.0000   
         C         C         1.0       0.7512833973481592  0.4778016392732523  0.4958492744352967 1.0000   
         C         C         1.0       0.7314716796383878  0.4708330686675475  0.45484162756917906          1.0000   
         C         C         1.0       0.6429436617327967  0.37957419175585183           0.37984371416068363          1.0000   
         C         C         1.0       0.6350790165610936  0.35409966613650395           0.36604475756629146          1.0000   
         C         C         1.0       0.6587705893112394  0.35231234586326293           0.35666527798200376          1.0000   
         C         C         1.0       0.6884546653650893  0.3759673406362693  0.35334488492611205          1.0000   
         C         C         1.0       0.6951851244328536  0.40161897702833377           0.36334408098958465          1.0000   
         C         C         1.0       0.6733209541469104  0.4036819694438203  0.3803178644418942 1.0000   
         C         C         1.0       0.6525724251031947  0.3225071866144353  0.34884690753793207          1.0000   
         C         C         1.0       0.565003608073845   0.248204253207099   0.39610583206700034          1.0000   
         C         C         1.0       0.5771437560822674  0.24837513703004954           0.3485514721043321 1.0000   
         C         C         1.0       0.605791759000275   0.270916881680568   0.33594332972359736          1.0000   
         C         C         1.0       0.6207344900337196  0.2952760070234785  0.3659638187296769 1.0000   
         C         C         1.0       0.6078990360420073  0.2945720338380624  0.41468954491127213          1.0000   
         C         C         1.0       0.5794414331341843  0.27232637704851576           0.4275591479330187 1.0000   
         C         C         1.0       0.675512891209899   0.31870888811398046           0.3756572055032064 1.0000   
         C         C         1.0       0.6809092158434015  0.3007080929029156  0.35783107171538747          1.0000   
         C         C         1.0       0.7004215318665499  0.2982571924339757  0.38649088989954977          1.0000   
         C         C         1.0       0.7111437943969358  0.3112582155421354  0.435020469216264  1.0000   
         C         C         1.0       0.7039659409577516  0.3273094568749761  0.45565699027685724          1.0000   
         C         C         1.0       0.6886654525275164  0.3333918989267389  0.42362148465570765          1.0000   
         C         C         1.0       0.6305641833258403  0.3168998862179737  0.25683228439918854          1.0000   
         C         C         1.0       0.6308377616949035  0.31854889873327097           0.20254443132450972          1.0000   
         C         C         1.0       0.6563598587977267  0.3284892440140429  0.17485276728122412          1.0000   
         C         C         1.0       0.6809666086028616  0.3343487180089593  0.20165516677873496          1.0000   
         C         C         1.0       0.680225052070595   0.3330356689867958  0.2566771758831699 1.0000   
         C         C         1.0       0.6551056652504434  0.32398158591122117           0.28514896662824496          1.0000   
         H         H         1.0       0.684619076936029   0.48300365736505796           0.4134576451818373 1.0000   
         H         H         1.0       0.6355814897546287  0.39793891569469353           0.47134869581626504          1.0000   
         H         H         1.0       0.6065320178908711  0.4071811928811677  0.5283727145886074 1.0000   
         H         H         1.0       0.652166896090792   0.4874632773661158  0.4680540232937136 1.0000   
         H         H         1.0       0.6850826201375353  0.40221023542127027           0.48054576200482685          1.0000   
         H         H         1.0       0.7215036059169607  0.4161068626876377  0.5445710620181223 1.0000   
         H         H         1.0       0.7706392678989727  0.5000839522863951  0.5044063178169063 1.0000   
         H         H         1.0       0.7311917590355526  0.48641648407214594           0.432738846871435  1.0000   
         H         H         1.0       0.625904893606574   0.38118473171534073           0.3856781516608816 1.0000   
         H         H         1.0       0.6103692639639968  0.3363351746214364  0.36310606211801705          1.0000   
         H         H         1.0       0.7089911019278856  0.3775224237258892  0.34545926526395104          1.0000   
         H         H         1.0       0.7186678533470144  0.41958498723898724           0.3626699884533047 1.0000   
         H         H         1.0       0.5655663075698157  0.23068813611109543           0.32506685454240025          1.0000   
         H         H         1.0       0.6153950257053991  0.2675337377689556  0.30219642432747684          1.0000   
         H         H         1.0       0.6211132589720022  0.31304981297662116           0.43868563393031584          1.0000   
         H         H         1.0       0.5681957173301041  0.26992726546548634           0.46535264186354897          1.0000   
         H         H         1.0       0.6714225250153738  0.28865655464307444           0.31932207610189084          1.0000   
         H         H         1.0       0.7073229772508915  0.2854998233751065  0.37088135304013004          1.0000   
         H         H         1.0       0.7138359549360309  0.33849163230094614           0.49415107590512813          1.0000   
         H         H         1.0       0.6842254791120312  0.34806126135675    0.4394223861672079 1.0000   
         H         H         1.0       0.6100397949409743  0.310228398783419   0.2775738301993547 1.0000   
         H         H         1.0       0.6114769819391431  0.3130365859693927  0.17907280475667675          1.0000   
         H         H         1.0       0.701479584049896   0.34198817525391584           0.18035279488604838          1.0000   
         H         H         1.0       0.70106238558686    0.33990860447043253           0.2736072774010508 1.0000   
         C         C         1.0       0.7559346895515142  0.4587353521971933  0.8327416676605827 1.0000   
         C         C         1.0       0.7473006603152719  0.4404012196831637  0.8758080943894434 1.0000   
         C         C         1.0       0.7183741532103376  0.4223843290577392  0.8909174822687066 1.0000   
         C         C         1.0       0.6975055120130141  0.4226756429400337  0.8670577053522491 1.0000   
         C         C         1.0       0.7041968698325083  0.4387656047231831  0.8228439811246369 1.0000   
         C         C         1.0       0.733155038905215   0.4566526039940433  0.8067172053342835 1.0000   
         H         H         1.0       0.7635811576090966  0.43878472725600876           0.8982895750124071 1.0000   
         H         H         1.0       0.7159337559259557  0.40966851554755696           0.9214757120444405 1.0000   
         H         H         1.0       0.6888803346854865  0.43978183570222407           0.8004209290623895 1.0000   
         H         H         1.0       0.7389675636289378  0.46925927173471965           0.7722526564247983 1.0000   
         C         C         1.0       0.6617501553494316  0.44209025199941243           0.9070148096881855 1.0000   
         C         C         1.0       0.6454154984533526  0.4145656710492775  0.8934962759759159 1.0000   
         C         C         1.0       0.6150544741902491  0.39808204562645855           0.9012447891783487 1.0000   
         C         C         1.0       0.6008359013367602  0.4092396223838621  0.9180401610884485 1.0000   
         C         C         1.0       0.617360213449448   0.4375662561770806  0.9286414703503308 1.0000   
         C         C         1.0       0.6473761421809188  0.45380941760210786           0.920202581080446  1.0000   
         C         C         1.0       0.6635076326540187  0.40130465523106956           0.8845276151188641 1.0000   
         C         C         1.0       0.657023603398826   0.3861584500517659  0.9414808410294211 1.0000   
         C         C         1.0       0.6398684463970562  0.35653128571471904           0.948625646804306  1.0000   
         C         C         1.0       0.6370277358617048  0.3451948839463536  0.9978964180154365 1.0000   
         C         C         1.0       0.6540574888364002  0.3629769932163045  0.03927194029807968          1.0000   
         C         C         1.0       0.6702792720834232  0.3911984823315731  0.03195812643997842          1.0000   
         C         C         1.0       0.672489888270813   0.40257269250054306           0.9847992711242325 1.0000   
         C         C         1.0       0.6318052073997588  0.37762745846508955           0.7964137037247029 1.0000   
         C         C         1.0       0.6292908709063141  0.3645852049207604  0.7474903197464635 1.0000   
         C         C         1.0       0.6460291346824094  0.3549508847269064  0.7358500264122547 1.0000   
         C         C         1.0       0.6607504365021358  0.3530892474195533  0.7786716596436867 1.0000   
         C         C         1.0       0.659942248316283   0.36237237789974003           0.8275859364781156 1.0000   
         C         C         1.0       0.6495378003264575  0.37816158519135645           0.8347403059168151 1.0000   
         C         C         1.0       0.6562335864831049  0.35436186608524417           0.6764859989381423 1.0000   
         C         C         1.0       0.6014502455979188  0.33532162220449313           0.5308567891218396 1.0000   
         C         C         1.0       0.6310343421778355  0.3516246588446587  0.5280082087173941 1.0000   
         C         C         1.0       0.6485370903986003  0.36038334140148937           0.5735418176092197 1.0000   
         C         C         1.0       0.6361793076506187  0.34874588880960083           0.6230810955018559 1.0000   
         C         C         1.0       0.6052462363205043  0.32839613220631675           0.6246506416682436 1.0000   
         C         C         1.0       0.5882839562250837  0.3219584841406488  0.5784408984138786 1.0000   
         C         C         1.0       0.6592491483155467  0.32945251678867005           0.6683618590990265 1.0000   
         C         C         1.0       0.6398853657679499  0.3048769356768791  0.693200358185377  1.0000   
         C         C         1.0       0.6403427093528614  0.2828506029011962  0.6836499829125832 1.0000   
         C         C         1.0       0.6588216096108302  0.2847338913296495  0.6441307319381703 1.0000   
         C         C         1.0       0.6771373768054642  0.3080718190711573  0.6146819925079969 1.0000   
         C         C         1.0       0.676205082560675   0.3307901507712682  0.6269820742440215 1.0000   
         C         C         1.0       0.7148042092992054  0.3912724894247187  0.6696509429895898 1.0000   
         C         C         1.0       0.7390016152091115  0.41828275545290794           0.6604929922652308 1.0000   
         C         C         1.0       0.7353213267808273  0.4391108179218577  0.6486377470033744 1.0000   
         C         C         1.0       0.7079206237784029  0.4337911286263089  0.6544817594755823 1.0000   
         C         C         1.0       0.6841671793503188  0.40722592825044657           0.6603760969720186 1.0000   
         C         C         1.0       0.6864811714703172  0.38529819112175895           0.671563527808512  1.0000   
         H         H         1.0       0.6863332200132473  0.4562580604728979  0.9045167383493812 1.0000   
         H         H         1.0       0.6038414309024962  0.3770949083084434  0.894755132662274  1.0000   
         H         H         1.0       0.5778914154317996  0.39555432496944176           0.9193830826542893 1.0000   
         H         H         1.0       0.6629162772397668  0.4745621103637116  0.9264864801902342 1.0000   
         H         H         1.0       0.6284578036487527  0.3420122443606488  0.9152594384453465 1.0000   
         H         H         1.0       0.6196474470777363  0.32232990270056383           0.9996714173847999 1.0000   
         H         H         1.0       0.684393941311293   0.40415283071913477           0.06439370290857616          1.0000   
         H         H         1.0       0.6888534592223395  0.42511864344955347           0.9806431962779129 1.0000   
         H         H         1.0       0.6229155229874279  0.38995541096163433           0.8002766288537587 1.0000   
         H         H         1.0       0.6207452667325579  0.36947465137829943           0.7151982686475526 1.0000   
         H         H         1.0       0.6750404480431826  0.34773385554342484           0.7738659435805236 1.0000   
         H         H         1.0       0.6765587306466699  0.3645267943851551  0.8539082369296346 1.0000   
         H         H         1.0       0.640936829500791   0.3599449154724157  0.49003752794087685          1.0000   
         H         H         1.0       0.6714829061720747  0.374923709017846   0.5672736929395951 1.0000   
         H         H         1.0       0.5927701353771612  0.31560242344050665           0.6583440198690336 1.0000   
         H         H         1.0       0.564741211147301   0.30326239663004667           0.5781890459953296 1.0000   
         H         H         1.0       0.6219872656510915  0.30051739405150996           0.7189888427476475 1.0000   
         H         H         1.0       0.6257205503092289  0.26408089728044615           0.7069828075486299 1.0000   
         H         H         1.0       0.6920307700020429  0.309767882924507   0.5855086537311588 1.0000   
         H         H         1.0       0.6899774322900808  0.3488779841281134  0.602384466091493  1.0000   
         H         H         1.0       0.7201013577054138  0.37857829053303105           0.6785300351488658 1.0000   
         H         H         1.0       0.760928327737114   0.42400240712953574           0.6624957671019523 1.0000   
         H         H         1.0       0.7055027905426408  0.44912498979869514           0.6404728621265273 1.0000   
         H         H         1.0       0.6632472133393227  0.40402601872443694           0.6594286693801334 1.0000   
         C         C         1.0       0.39800151129879324           0.3601222139768096 0.668887199140882  1.0000   
         C         C         1.0       0.39246535555439377           0.3524594767282882 0.616468376904269  1.0000   
         C         C         1.0       0.41350426744075086           0.35510666834222   0.5851543660691012 1.0000   
         C         C         1.0       0.44111432275900914           0.36560239256732335          0.6061574413656501 1.0000   
         C         C         1.0       0.4481174053887334  0.37685800438364925           0.6572635051265983 1.0000   
         C         C         1.0       0.4262943674030025  0.3728853293995331  0.6896759981256042 1.0000   
         H         H         1.0       0.36929599774259136           0.3394196880872979 0.6002937469922175 1.0000   
         H         H         1.0       0.40662027214163    0.34883272738774795           0.5440775141658725 1.0000   
         H         H         1.0       0.4695243355205171  0.3869757036729939  0.6767313551639845 1.0000   
         H         H         1.0       0.4317961685432337  0.37908146096364875           0.7303743555415125 1.0000   
         C         C         1.0       0.5076208502172694  0.4155034287081841  0.5732232947785927 1.0000   
         C         C         1.0       0.49893520446650846           0.3875725083686757 0.5833898308360956 1.0000   
         C         C         1.0       0.5211734260568367  0.3839896813735261  0.5770563395813939 1.0000   
         C         C         1.0       0.550584972956666   0.40658520785085955           0.5688781702908956 1.0000   
         C         C         1.0       0.5568764477320103  0.4321007983707451  0.5567423025724944 1.0000   
         C         C         1.0       0.5365851385283945  0.4372336081413423  0.563788630729048  1.0000   
         C         C         1.0       0.46399343344914135           0.36242258035143926          0.577493990504173  1.0000   
         C         C         1.0       0.4611803428031592  0.3589970992213153  0.515000251650718  1.0000   
         C         C         1.0       0.47010851464199105           0.3448071495050258 0.48721262391974357          1.0000   
         C         C         1.0       0.4698271170292357  0.3436663246328266  0.4310781960905038 1.0000   
         C         C         1.0       0.4579966241185525  0.35415853352612986           0.40352739014185035          1.0000   
         C         C         1.0       0.45260297672031236           0.3715945075226723 0.42747874719865575          1.0000   
         C         C         1.0       0.4546489950159395  0.3741126589668523  0.4833391430291435 1.0000   
         C         C         1.0       0.4705346181372241  0.3386507277562664  0.6530515068864996 1.0000   
         C         C         1.0       0.4718539522229228  0.31831869708297217           0.6726273917818643 1.0000   
         C         C         1.0       0.4590793683068482  0.2931541188137451  0.645852244864481  1.0000   
         C         C         1.0       0.4370682404154342  0.2875033773996334  0.6095465986463394 1.0000   
         C         C         1.0       0.4335697256469827  0.3066438995775388  0.5911397593079599 1.0000   
         C         C         1.0       0.45463976835371994           0.3350103929204463 0.6074306175806837 1.0000   
         C         C         1.0       0.47884958164904495           0.281742831076594  0.6371050110838136 1.0000   
         C         C         1.0       0.5425811616068623  0.332498807734618   0.5093575160924566 1.0000   
         C         C         1.0       0.5480799926772045  0.34260577237306294           0.5625931825122328 1.0000   
         C         C         1.0       0.5265501963713439  0.32767108528544414           0.601798561684367  1.0000   
         C         C         1.0       0.5006655993688148  0.3010876954512375  0.5906001995443383 1.0000   
         C         C         1.0       0.4942447220291343  0.2932869757057386  0.5375137318507061 1.0000   
         C         C         1.0       0.5151610969932581  0.307781690961773   0.49775610243043844          1.0000   
         C         C         1.0       0.46011227356992446           0.24891903802364973          0.6284526930628606 1.0000   
         C         C         1.0       0.42992453909580786           0.22973779041902556          0.6408835832611612 1.0000   
         C         C         1.0       0.41385313442416427           0.20239358923363313          0.6246944141362402 1.0000   
         C         C         1.0       0.4280199808974318  0.19282773518196536           0.5984487350410653 1.0000   
         C         C         1.0       0.4579473074810875  0.21073708338331848           0.5869721029950024 1.0000   
         C         C         1.0       0.47354362861654015           0.23887810032642265          0.6015221651714674 1.0000   
         C         C         1.0       0.5229109724650378  0.28664568660517187           0.6909205739241436 1.0000   
         C         C         1.0       0.5348938050478339  0.2837551063459923  0.7351496325944208 1.0000   
         C         C         1.0       0.5225650916194206  0.2818039221959073  0.7837889131925583 1.0000   
         C         C         1.0       0.495246245199828   0.27597234527223585           0.7881229161667465 1.0000   
         C         C         1.0       0.4823910540441606  0.27831505432630743           0.7436547880307482 1.0000   
         C         C         1.0       0.49483005187704726           0.2821426905345557 0.6926896419242352 1.0000   
         H         H         1.0       0.4929249148017149  0.42219643573171894           0.5703073943594446 1.0000   
         H         H         1.0       0.5157090728992989  0.36277897435503476           0.5821341186092411 1.0000   
         H         H         1.0       0.566493268836975   0.40198380512098386           0.5656561919418556 1.0000   
         H         H         1.0       0.5403803467188074  0.4563186852947623  0.555335354145063  1.0000   
         H         H         1.0       0.47858790658669953           0.3343125234677312 0.5091175858650118 1.0000   
         H         H         1.0       0.47681521622485545           0.3315216336769849 0.4140965452927597 1.0000   
         H         H         1.0       0.4458551062255335  0.38358571062539015           0.4070302017358947 1.0000   
         H         H         1.0       0.4493370805128364  0.38764598145035484           0.5002991895572559 1.0000   
         H         H         1.0       0.4822702477678157  0.35821848555875063           0.6779084300680192 1.0000   
         H         H         1.0       0.4831896722273917  0.32242641727618515           0.7105948887558032 1.0000   
         H         H         1.0       0.4263984386629171  0.2700679932830603  0.5822821177390634 1.0000   
         H         H         1.0       0.4205258862523583  0.3023536573323877  0.5531507102895099 1.0000   
         H         H         1.0       0.5697678273083444  0.362420241917381   0.5758090850528454 1.0000   
         H         H         1.0       0.5336105837198041  0.33605843237126365           0.642302292225327  1.0000   
         H         H         1.0       0.4741470802912883  0.274062509610864   0.5250879492848061 1.0000   
         H         H         1.0       0.5113214451866378  0.3005754285496017  0.45700416956189843          1.0000   
         H         H         1.0       0.4175515279125025  0.23572187680776774           0.6623206378317783 1.0000   
         H         H         1.0       0.39046506192890146           0.18639822223737768          0.6331063579823042 1.0000   
         H         H         1.0       0.4708533554114593  0.2029413919989672  0.5745448311885037 1.0000   
         H         H         1.0       0.49703219884479144           0.25304504483251133          0.5900801550136557 1.0000   
         H         H         1.0       0.5342338358274876  0.287967784683799   0.6546048684999055 1.0000   
         H         H         1.0       0.5559889605662464  0.2869895616463852  0.7317195729780291 1.0000   
         H         H         1.0       0.48612048344107556           0.27257597176324677          0.8277629504165983 1.0000   
         H         H         1.0       0.460228280560571   0.273221678487131   0.7489334460912712 1.0000   
         C         C         1.0       0.423745212534663   0.30121607962646585           0.09038943671188049          1.0000   
         C         C         1.0       0.4265005911720977  0.2835886449325597  0.06240127652199212          1.0000   
         C         C         1.0       0.45555196997927705           0.2925044210249985 0.05113643205050944          1.0000   
         C         C         1.0       0.48008484255702943           0.31830746892090706          0.06963945451777653          1.0000   
         C         C         1.0       0.4739854978850275  0.33201267117655386           0.10753289228006113          1.0000   
         C         C         1.0       0.44607555175945096           0.32391746974017677          0.11611554214404007          1.0000   
         H         H         1.0       0.4097874777869667  0.2659479141426077  0.03915173214100953          1.0000   
         H         H         1.0       0.45953875144124673           0.28126216477349153          0.02490536023731016          1.0000   
         H         H         1.0       0.49148637335473194           0.3513759464432227 0.13028719224865148          1.0000   
         H         H         1.0       0.44174879091960895           0.33530751843933104          0.14310542561924477          1.0000   
         C         C         1.0       0.5298750714211832  0.37803987755844    0.03414998604956154          1.0000   
         C         C         1.0       0.5373431072332082  0.3616228550228746  0.05760814992577856          1.0000   
         C         C         1.0       0.5675683991118996  0.37579014324646676           0.07114174261846085          1.0000   
         C         C         1.0       0.5889121320039777  0.402881702604056   0.05834952904688895          1.0000   
         C         C         1.0       0.5803171784151866  0.4177290622813528  0.03532266452448751          1.0000   
         C         C         1.0       0.551615380229025   0.40506684649114716           0.022404779367267924         1.0000   
         C         C         1.0       0.5143937556583907  0.32911024298402536           0.06155023896146061          1.0000   
         C         C         1.0       0.5210077147826856  0.32190680437348324           0.004949807706989606         1.0000   
         C         C         1.0       0.5411248530153698  0.31599533652511275           0.002143557710323263         1.0000   
         C         C         1.0       0.5512962718280738  0.31298429170594405           0.9545205631523843 1.0000   
         C         C         1.0       0.5415727096145433  0.31604058459786705           0.906904649757206  1.0000   
         C         C         1.0       0.5192141871544373  0.32055526936947937           0.9092573964044828 1.0000   
         C         C         1.0       0.5093575599594462  0.32337896896461515           0.9572649700767325 1.0000   
         C         C         1.0       0.5194559359516571  0.32446224846369154           0.15951716812675665          1.0000   
         C         C         1.0       0.5066948342037427  0.30752667815768603           0.20269738648917104          1.0000   
         C         C         1.0       0.4897376581837226  0.27896933985993744           0.19799540832234752          1.0000   
         C         C         1.0       0.49319365713943575           0.2690647855803317 0.15169330603552322          1.0000   
         C         C         1.0       0.5048780443795363  0.2849446522010556  0.1067490901216197 1.0000   
         C         C         1.0       0.5151765290757716  0.31278680566426276           0.10846105402502437          1.0000   
         C         C         1.0       0.46171190536756684           0.25687002541258414          0.23940255148812326          1.0000   
         C         C         1.0       0.50370113407712    0.23786695309410757           0.36261139090649774          1.0000   
         C         C         1.0       0.509251775237784   0.2636373363440997  0.36314717643476047          1.0000   
         C         C         1.0       0.49628036726269886           0.269287718117634  0.32409177622116897          1.0000   
         C         C         1.0       0.47846736295797043           0.25020466403026337          0.2836362146777923 1.0000   
         C         C         1.0       0.4800271653893833  0.22764405380353708           0.2759435485417139 1.0000   
         C         C         1.0       0.48896440829379434           0.21944080359203613          0.31702733362542257          1.0000   
         C         C         1.0       0.43168025094381585           0.23144550405673692          0.2109188768335465 1.0000   
         C         C         1.0       0.422433472363623   0.2346713651815369  0.1610707745803746 1.0000   
         C         C         1.0       0.39372103723829843           0.2160866967946041 0.1430844329135046 1.0000   
         C         C         1.0       0.3748263520872742  0.19266995366574657           0.17118813133270674          1.0000   
         C         C         1.0       0.3832182777406574  0.18771832587514467           0.2195480157346796 1.0000   
         C         C         1.0       0.41192749884292107           0.2081583407359079 0.23861357734926378          1.0000   
         C         C         1.0       0.4353432187131559  0.26342625928085295           0.31967269320802827          1.0000   
         C         C         1.0       0.4290685815885775  0.2801884862169083  0.3436458491201727 1.0000   
         C         C         1.0       0.42810438195502    0.2991600825158898  0.3151805897456608 1.0000   
         C         C         1.0       0.4308024643823972  0.29912908626466544           0.2592650889859623 1.0000   
         C         C         1.0       0.44212924785546875           0.28615453127065876          0.2367137601336414 1.0000   
         C         C         1.0       0.4461456524915528  0.2693363372111234  0.2660793118410384 1.0000   
         H         H         1.0       0.508338728824932   0.3699321244519391  0.017694196480628976         1.0000   
         H         H         1.0       0.5767344360109855  0.36505614908648426           0.08317402308046362          1.0000   
         H         H         1.0       0.6124647734008681  0.4127891441111734  0.06545348427530073          1.0000   
         H         H         1.0       0.5431951109692907  0.41406843553704126           0.00019598778671015005       1.0000   
         H         H         1.0       0.552072277029538   0.3169795488141233  0.038770616317611584         1.0000   
         H         H         1.0       0.5671290630902873  0.3085559280234406  0.9567074543809996 1.0000   
         H         H         1.0       0.5131671173201574  0.3258891213433363  0.873092638411837  1.0000   
         H         H         1.0       0.4912461168039478  0.3264222600504564  0.9568472705547653 1.0000   
         H         H         1.0       0.5298438014497582  0.34496333811860014           0.16372435972883115          1.0000   
         H         H         1.0       0.5064996274726048  0.31809649108136495           0.23708924002960802          1.0000   
         H         H         1.0       0.48129476852094083           0.24627631928882276          0.14793983992917514          1.0000   
         H         H         1.0       0.5012464152446706  0.27524340834771127           0.07052152319667715          1.0000   
         H         H         1.0       0.5208354993647648  0.2780195633067672  0.3975719272469653 1.0000   
         H         H         1.0       0.5029915648399098  0.28975912535270787           0.3234407468769506 1.0000   
         H         H         1.0       0.46699946886685256           0.21086658454966814          0.24504963078346464          1.0000   
         H         H         1.0       0.48224709607315647           0.19811033863392902          0.3175731535410311 1.0000   
         H         H         1.0       0.4360667429282102  0.25443518329762227           0.1379671106180896 1.0000   
         H         H         1.0       0.3860011369447405  0.22342916997540596           0.10944644250024906          1.0000   
         H         H         1.0       0.36797419393535863           0.17130309988436213          0.2453095504014508 1.0000   
         H         H         1.0       0.41903002442717047           0.2070193567596527 0.27778601803598774          1.0000   
         H         H         1.0       0.4374032790753123  0.24998693743047776           0.34548729112543236          1.0000   
         H         H         1.0       0.42560371954504034           0.27986315460975986          0.38511563321560077          1.0000   
         H         H         1.0       0.4313312914957617  0.3128592358836259  0.23189195062986043          1.0000   
         H         H         1.0       0.4504952438895926  0.29165231655858675           0.19665032302710164          1.0000   
         C         C         1.0       0.5448863570490072  0.6182859743764659  0.5692013406826245 1.0000   
         C         C         1.0       0.5396777840558608  0.6352144800667842  0.5451283601108309 1.0000   
         C         C         1.0       0.5373168823383911  0.6342657962464067  0.48979872999171914          1.0000   
         C         C         1.0       0.5414296545818054  0.6168908203889697  0.4590775583414608 1.0000   
         C         C         1.0       0.5509823209031485  0.6036435810074334  0.48478321440629313          1.0000   
         C         C         1.0       0.5524918787478578  0.6038347105901641  0.5402615647674647 1.0000   
         H         H         1.0       0.533503520441202   0.6471273999925684  0.567366843351443  1.0000   
         H         H         1.0       0.5300569775752932  0.645358645440705   0.4718208318177133 1.0000   
         H         H         1.0       0.5554812688769835  0.5890955726164694  0.4694191320842772 1.0000   
         H         H         1.0       0.55948826511989    0.5944409337626563  0.5615725501258444 1.0000   
         C         C         1.0       0.552243330870216   0.5876123331007531  0.36358505606220315          1.0000   
         C         C         1.0       0.5266333621504874  0.5862798318848379  0.37060570536820214          1.0000   
         C         C         1.0       0.5002744138505156  0.562190653336131   0.3545969061885754 1.0000   
         C         C         1.0       0.4969168265368008  0.5380490967711522  0.3397779003734367 1.0000   
         C         C         1.0       0.5214844758921058  0.5384032137793695  0.34093836350444373          1.0000   
         C         C         1.0       0.5491331611396197  0.5633361117495536  0.3513759619155001 1.0000   
         C         C         1.0       0.5302466738879549  0.6123224543060787  0.3962332579532429 1.0000   
         C         C         1.0       0.5525526488738862  0.6389153439838993  0.360590649847822  1.0000   
         C         C         1.0       0.5463797687678708  0.6384590768645736  0.30316047663094275          1.0000   
         C         C         1.0       0.5580832289003298  0.661667400569092   0.27464179331530647          1.0000   
         C         C         1.0       0.5792759682368985  0.6870696297970145  0.29820710401664124          1.0000   
         C         C         1.0       0.588754793791539   0.687045296001475   0.3483918377405505 1.0000   
         C         C         1.0       0.5756492503644477  0.664105357417409   0.37992297035057987          1.0000   
         C         C         1.0       0.4763534726687902  0.5832020243717031  0.43954935521635424          1.0000   
         C         C         1.0       0.45238520190588444           0.5828643684933716 0.46079088871630824          1.0000   
         C         C         1.0       0.44888175984143397           0.6026847451515868 0.4484570482233559 1.0000   
         C         C         1.0       0.4658911065181774  0.6205819660749656  0.40669378263471107          1.0000   
         C         C         1.0       0.49055786117930555           0.6227737324245799 0.3883251785910275 1.0000   
         C         C         1.0       0.4968637351777636  0.6042464706145968  0.4046101948863583 1.0000   
         C         C         1.0       0.426875353456394   0.6058609150254607  0.48705292497697844          1.0000   
         C         C         1.0       0.35078225347833664           0.5282551660161805 0.41723234580935187          1.0000   
         C         C         1.0       0.3642362755784123  0.5283842504367462  0.46214299246681223          1.0000   
         C         C         1.0       0.38239319895395424           0.5513410002499822 0.4903514931074733 1.0000   
         C         C         1.0       0.3960996673687517  0.577877557285712   0.46668846651682544          1.0000   
         C         C         1.0       0.38430223815371684           0.5782232150968782 0.41906434202880577          1.0000   
         C         C         1.0       0.36272860514041927           0.5543638332648316 0.3936512921795123 1.0000   
         C         C         1.0       0.4301544693424197  0.634444688307763   0.4828662233437726 1.0000   
         C         C         1.0       0.45856909915150795           0.6606429193949477 0.482527374078628  1.0000   
         C         C         1.0       0.4605412104808644  0.6842748085668945  0.47633577345144057          1.0000   
         C         C         1.0       0.4362269000775153  0.6844163112735223  0.47479614031138573          1.0000   
         C         C         1.0       0.40809687798584093           0.6587513180246067 0.47771900322596716          1.0000   
         C         C         1.0       0.40512810343771166           0.6345113038429873 0.4812495626556368 1.0000   
         C         C         1.0       0.40763519855794467           0.5979147440475602 0.5863593885835143 1.0000   
         C         C         1.0       0.41103062073535157           0.5945322145863419 0.6395723900699981 1.0000   
         C         C         1.0       0.4378841116401759  0.5989933137039238  0.6568675551183963 1.0000   
         C         C         1.0       0.46056999892480527           0.6072553791167925 0.6225362385697217 1.0000   
         C         C         1.0       0.45608989461253285           0.6097291070919629 0.5703544701303471 1.0000   
         C         C         1.0       0.42839254885305167           0.6030533372710721 0.5498866245692564 1.0000   
         H         H         1.0       0.5725982799246983  0.60582849614086    0.3769706388161825 1.0000   
         H         H         1.0       0.47908856689024454           0.5594624351096178 0.35798937822663407          1.0000   
         H         H         1.0       0.4758632522173694  0.5182371606017442  0.3303915124986733 1.0000   
         H         H         1.0       0.5683601369132486  0.5636586534318727  0.3534210633887862 1.0000   
         H         H         1.0       0.5320767255700898  0.6179773349911953  0.2862843217876952 1.0000   
         H         H         1.0       0.5501312267807701  0.6584228746668471  0.2323776213719857 1.0000   
         H         H         1.0       0.6061892397475301  0.7072012941826564  0.36493229875509914          1.0000   
         H         H         1.0       0.5813260109373445  0.6652127418495529  0.4215058743498374 1.0000   
         H         H         1.0       0.47835827272704035           0.5682649679662453 0.4577061838790604 1.0000   
         H         H         1.0       0.43940100325729764           0.5673930400607704 0.4905798841265811 1.0000   
         H         H         1.0       0.46261281218681216           0.6351243637605606 0.3923555150693928 1.0000   
         H         H         1.0       0.5058610256229059  0.64128756355       0.36497055538723816          1.0000   
         H         H         1.0       0.35872670413674757           0.5094574414429446 0.47932189213126775          1.0000   
         H         H         1.0       0.3906480053512081  0.5500942935169572  0.526830423542526  1.0000   
         H         H         1.0       0.39284111388877896           0.5978657271479445 0.4017690003979493 1.0000   
         H         H         1.0       0.35494952943848124           0.5553294583138635 0.35510059783089254          1.0000   
         H         H         1.0       0.47833501753658025           0.6626080374153924 0.4919533231860609 1.0000   
         H         H         1.0       0.48409932149505663           0.7042751609672765 0.4775033036028453 1.0000   
         H         H         1.0       0.38799861183172735           0.6570121768167472 0.4785351125236602 1.0000   
         H         H         1.0       0.38344890358127043           0.6163285630528693 0.4873727935243775 1.0000   
         H         H         1.0       0.3858136984575116  0.5903756952567195  0.5755629687323167 1.0000   
         H         H         1.0       0.39236099589411255           0.5841013315195291 0.6668101953689953 1.0000   
         H         H         1.0       0.4830439225570917  0.6139874738621462  0.6340335615435497 1.0000   
         H         H         1.0       0.4741769660018796  0.6166589920051674  0.5447055368799744 1.0000   
         C         C         1.0       0.5794854037796598  0.721705467018974   0.9864986631084683 1.0000   
         C         C         1.0       0.5504910015463035  0.7133824362005798  0.9847005921996539 1.0000   
         C         C         1.0       0.5284076679486235  0.6852269815969148  0.9764851327132613 1.0000   
         C         C         1.0       0.5346958732739687  0.6661647529748571  0.966909435668243  1.0000   
         C         C         1.0       0.5650196162997848  0.6768706744663479  0.9658826076894026 1.0000   
         C         C         1.0       0.5866132665863943  0.7035105311059667  0.9776367529555668 1.0000   
         H         H         1.0       0.5442322813450113  0.7270164532944978  0.9925990014268247 1.0000   
         H         H         1.0       0.506113445028203   0.6777562933370136  0.9712113924928331 1.0000   
         H         H         1.0       0.5756054042772021  0.6666002622975511  0.9538763959058012 1.0000   
         H         H         1.0       0.6091429537602541  0.7094749924129107  0.9774105614820068 1.0000   
         C         C         1.0       0.5350675891213773  0.6232213259581109  0.8905583860483298 1.0000   
         C         C         1.0       0.5167501563681821  0.615139944959179   0.9337430998020344 1.0000   
         C         C         1.0       0.501005589556975   0.5872011766319433  0.9495287858961319 1.0000   
         C         C         1.0       0.503067372447778   0.5682735665958685  0.9229204204587542 1.0000   
         C         C         1.0       0.5223712852683025  0.5782411171559275  0.8807706126659981 1.0000   
         C         C         1.0       0.5377328780681758  0.6050497608749346  0.8651573347887287 1.0000   
         C         C         1.0       0.5071742473183499  0.6345530950749312  0.9561598219547691 1.0000   
         C         C         1.0       0.48746853485458863           0.6306871312022336 0.9053327338423681 1.0000   
         C         C         1.0       0.4602774519799918  0.605275979920388   0.8946631547583417 1.0000   
         C         C         1.0       0.44421136939725564           0.5997911244291344 0.847904023751066  1.0000   
         C         C         1.0       0.456559089064995   0.6205143270755383  0.8085736920091402 1.0000   
         C         C         1.0       0.4840951343708479  0.6446251347209732  0.8188709207015019 1.0000   
         C         C         1.0       0.49854746890937846           0.6506850255449028 0.8656688815497807 1.0000   
         C         C         1.0       0.5104401652281159  0.62997826520619    0.057997820377973186         1.0000   
         C         C         1.0       0.5010049951533202  0.6306379478501551  0.10984840005853913          1.0000   
         C         C         1.0       0.47539808655687976           0.6291843717218084 0.11909919924107215          1.0000   
         C         C         1.0       0.4563235156067434  0.6215163845723384  0.0762432748550097 1.0000   
         C         C         1.0       0.46534238124420013           0.620757348821568  0.025375676382471513         1.0000   
         C         C         1.0       0.49266263186734754           0.626376858869211  0.014803017708403976         1.0000   
         C         C         1.0       0.466024695594457   0.635565280269315   0.17468821266264944          1.0000   
         C         C         1.0       0.4296900882841768  0.5632109361370254  0.2728883434441356 1.0000   
         C         C         1.0       0.46019978359793584           0.5821048755927188 0.2715247297197625 1.0000   
         C         C         1.0       0.47242334727822866           0.6042030828978097 0.23658737245503558          1.0000   
         C         C         1.0       0.4541654871870628  0.6073397314602113  0.2039274818649608 1.0000   
         C         C         1.0       0.4241895061154715  0.5848785140026335  0.1989668438703487 1.0000   
         C         C         1.0       0.41196975494335514           0.5631972040824191 0.23346132340823234          1.0000   
         C         C         1.0       0.44509284521474585           0.6460896501962651 0.17054079117941723          1.0000   
         C         C         1.0       0.4486760781693693  0.6639596154770996  0.13056527988006628          1.0000   
         C         C         1.0       0.4268646120212486  0.6676574912472287  0.1230219057271491 1.0000   
         C         C         1.0       0.40031123263168367           0.6519860325607368 0.15088647305892522          1.0000   
         C         C         1.0       0.3978614167797851  0.636347299785996   0.19430764889123076          1.0000   
         C         C         1.0       0.42162487440510793           0.6360513268979122 0.20550128630291375          1.0000   
         C         C         1.0       0.4949301458340544  0.6669943288544933  0.2551448230128741 1.0000   
         C         C         1.0       0.5195524578226656  0.6893054257361441  0.27971165472090975          1.0000   
         C         C         1.0       0.5427299785975128  0.7081602140223036  0.24762436754434325          1.0000   
         C         C         1.0       0.5409156833811404  0.7065962455794463  0.19384603619104546          1.0000   
         C         C         1.0       0.5156769598301656  0.6845805698592813  0.1701198248516127 1.0000   
         C         C         1.0       0.49349000847592134           0.6636976851449433 0.19965815498525963          1.0000   
         H         H         1.0       0.5471048012709501  0.644026887544043   0.8725134064930614 1.0000   
         H         H         1.0       0.4858808771595514  0.5796543696199734  0.9802473125923691 1.0000   
         H         H         1.0       0.49192538434176153           0.546007573962992  0.9369847902224427 1.0000   
         H         H         1.0       0.5511107968679435  0.6116976277554445  0.829246993489679  1.0000   
         H         H         1.0       0.4507990007287055  0.5890379406067745  0.9232557761513757 1.0000   
         H         H         1.0       0.4251021196192649  0.5784096476430706  0.843463602793213  1.0000   
         H         H         1.0       0.48999467459454865           0.6599647392665486 0.7906106289710376 1.0000   
         H         H         1.0       0.5201455038476087  0.6706664841509862  0.8755710249995436 1.0000   
         H         H         1.0       0.5305752883267676  0.6315476974880102  0.05332625840677174          1.0000   
         H         H         1.0       0.5137423602554875  0.6349486884205815  0.14563715729134907          1.0000   
         H         H         1.0       0.43295277950439903           0.6144919068832603 0.08520037539699077          1.0000   
         H         H         1.0       0.45292430539714945           0.6187069769030052 0.9926427167681954 1.0000   
         H         H         1.0       0.4740041185351653  0.579963980890402   0.29831060826763567          1.0000   
         H         H         1.0       0.4956744538902452  0.6203574932947676  0.23255773806554236          1.0000   
         H         H         1.0       0.409930214712101   0.5839747358350884  0.16651299150594334          1.0000   
         H         H         1.0       0.3888839770144783  0.5465635823787922  0.23023176746393692          1.0000   
         H         H         1.0       0.46601610164393314           0.6725614044441477 0.10273643493590257          1.0000   
         H         H         1.0       0.43155586018224773           0.6843139304881573 0.09710166598375958          1.0000   
         H         H         1.0       0.3780572442420923  0.6251250581126208  0.22145123652789533          1.0000   
         H         H         1.0       0.42105960495957595           0.627162964354102  0.24280507756678316          1.0000   
         H         H         1.0       0.47381693878845627           0.6532231220245622 0.27894508493353354          1.0000   
         H         H         1.0       0.5224322938479341  0.694316502140969   0.32267883703152067          1.0000   
         H         H         1.0       0.5578142721230687  0.7213696348476588  0.16576162845313247          1.0000   
         H         H         1.0       0.5161896750923812  0.686052818262983   0.12749349333818838          1.0000   
         C         C         1.0       0.39285195100972486           0.3358689922804574 0.11366861236174497          1.0000   
         C         C         1.0       0.3709655228123298  0.32641025349819425           0.15264253410184875          1.0000   
         C         C         1.0       0.3715653320929074  0.3458981353427421  0.18504261097544256          1.0000   
         C         C         1.0       0.39586447197213115           0.3744455345401259 0.1852644556048592 1.0000   
         C         C         1.0       0.41580597016990317           0.38305832110021204          0.14498052415838716          1.0000   
         C         C         1.0       0.4136461956128214  0.3649558983769832  0.10649957802268051          1.0000   
         H         H         1.0       0.35159379491942677           0.30512824168146835          0.15631733614596566          1.0000   
         H         H         1.0       0.35412749176272346           0.3376608800031482 0.2139462228415238 1.0000   
         H         H         1.0       0.4362570592964859  0.4045335734846394  0.137318509777122  1.0000   
         H         H         1.0       0.427163748158135   0.371772485054404   0.0724918723592145 1.0000   
         C         C         1.0       0.4541665138881682  0.4258136034029992  0.2474893690348951 1.0000   
         C         C         1.0       0.4294729273353768  0.4252195773242948  0.2319870576830195 1.0000   
         C         C         1.0       0.4328021305641121  0.44979457645995946           0.23792932292075697          1.0000   
         C         C         1.0       0.46055579854703793           0.4745333118319705 0.24362132454257554          1.0000   
         C         C         1.0       0.4845423853178207  0.4755486084428855  0.2564709653438201 1.0000   
         C         C         1.0       0.4803329499450304  0.4502629652009187  0.2620638038275521 1.0000   
         C         C         1.0       0.39638495365014365           0.3961297008810403 0.22546035490383515          1.0000   
         C         C         1.0       0.38824361656339573           0.38519259001134587          0.28707986924347806          1.0000   
         C         C         1.0       0.3797924421080519  0.39738858757465967           0.32500056483337647          1.0000   
         C         C         1.0       0.3790957594871655  0.3924727421182136  0.37725379502459305          1.0000   
         C         C         1.0       0.3806116141482775  0.3722465929542232  0.39484353930431615          1.0000   
         C         C         1.0       0.3900217852449031  0.3605617140405454  0.3591013255691588 1.0000   
         C         C         1.0       0.3953362773912018  0.3675034879749742  0.30591753964055274          1.0000   
         C         C         1.0       0.37911226253838043           0.4133711015414174 0.15400590413948012          1.0000   
         C         C         1.0       0.36198190446799017           0.42239581626038347          0.14016728571347437          1.0000   
         C         C         1.0       0.33697406919017214           0.41321018258347664          0.1701676943982262 1.0000   
         C         C         1.0       0.3261708152724499  0.39109419448435817           0.2054856064672404 1.0000   
         C         C         1.0       0.34368452590114096           0.3828767002841083 0.21908058239646563          1.0000   
         C         C         1.0       0.3714076754510394  0.3961099641443207  0.19777495511059393          1.0000   
         C         C         1.0       0.3227563192120053  0.429289134725403   0.1650989804455767 1.0000   
         C         C         1.0       0.3935459845582056  0.4928180615924535  0.27249499929150556          1.0000   
         C         C         1.0       0.39563261789144283           0.49632307702517375          0.21563518061383613          1.0000   
         C         C         1.0       0.3726116299324524  0.47666113716249187           0.1858273588021757 1.0000   
         C         C         1.0       0.34596993020756706           0.45386998632342757          0.20447769662634507          1.0000   
         C         C         1.0       0.3449844017015213  0.4513697839270435  0.26225328469368225          1.0000   
         C         C         1.0       0.36718038669984826           0.46987211271056667          0.29361879144255365          1.0000   
         C         C         1.0       0.29036228110739914           0.4107025760415194 0.1799723268928377 1.0000   
         C         C         1.0       0.2701949316992222  0.3834002267109293  0.16011599740312366          1.0000   
         C         C         1.0       0.24056426278114265           0.3699281080970766 0.16193260332232318          1.0000   
         C         C         1.0       0.22845779144003872           0.3814294031994653 0.19043848338962244          1.0000   
         C         C         1.0       0.24831241129216292           0.4055432602233586 0.21890096195409692          1.0000   
         C         C         1.0       0.27892554922587326           0.4212219160666486 0.21341532748991177          1.0000   
         C         C         1.0       0.3194077735019074  0.4645618071209693  0.10933725626678958          1.0000   
         C         C         1.0       0.3141467664663602  0.4723266899102145  0.062058488248064814         1.0000   
         C         C         1.0       0.31365208340979406           0.4605770958422499 0.015226273631378628         1.0000   
         C         C         1.0       0.31406265242659825           0.43746739771070187          0.014621975002263587         1.0000   
         C         C         1.0       0.3177709912828202  0.4290207923001422  0.06299624198109388          1.0000   
         C         C         1.0       0.32093570126843046           0.44210740102286705          0.11089653101854058          1.0000   
         H         H         1.0       0.4530289032107368  0.4069244478093373  0.24979764100345825          1.0000   
         H         H         1.0       0.4135710434240832  0.4501186060374783  0.23146711577082005          1.0000   
         H         H         1.0       0.46255802490896125           0.4927485671739755 0.24640679538654267          1.0000   
         H         H         1.0       0.4987213386283577  0.4489319236173552  0.2710119780244339 1.0000   
         H         H         1.0       0.3769893741735136  0.4116464631340639  0.30793718788838054          1.0000   
         H         H         1.0       0.3748434638196528  0.4029679552866761  0.4071644171677322 1.0000   
         H         H         1.0       0.3927761102341624  0.3450738512982361  0.3756897965872041 1.0000   
         H         H         1.0       0.40546112299687137           0.35919867026478036          0.27890312259917793          1.0000   
         H         H         1.0       0.4014666033491745  0.423395188068033   0.13775105880011784          1.0000   
         H         H         1.0       0.36899082395762833           0.43924294604297687          0.11537302941419902          1.0000   
         H         H         1.0       0.3049794221396087  0.3799823346826038  0.22578217268778628          1.0000   
         H         H         1.0       0.33326291959958326           0.3663841119728142 0.24547649003031036          1.0000   
         H         H         1.0       0.41202868166325096           0.5163982889061856 0.2001387789426412 1.0000   
         H         H         1.0       0.3758965617677864  0.4802817707533521  0.1454174714037222 1.0000   
         H         H         1.0       0.32529895028714484           0.432587897191907  0.28032312443397456          1.0000   
         H         H         1.0       0.3662080637240955  0.46584312653600524           0.3363348351200379 1.0000   
         H         H         1.0       0.27924610710641445           0.3739990610490506 0.14028969583013318          1.0000   
         H         H         1.0       0.2276185670157242  0.35109331593011117           0.13867200114903233          1.0000   
         H         H         1.0       0.23701253937967132           0.4102086689930987 0.2454782244833429 1.0000   
         H         H         1.0       0.2935317078655775  0.44127934418197196           0.2352595788307288 1.0000   
         H         H         1.0       0.3210040517946558  0.4754951420070218  0.1462938662375468 1.0000   
         H         H         1.0       0.3153100455396035  0.4912200532154527  0.06072565823918885          1.0000   
         H         H         1.0       0.31293819163442327           0.42802862943350917          0.9755877701683766 1.0000   
         H         H         1.0       0.31240009647458644           0.40808831713320154          0.06289765375216128          1.0000   
         C         C         1.0       0.3748716108431058  0.38832146197745626           0.7668178564913667 1.0000   
         C         C         1.0       0.35603620846340694           0.3911229904742322 0.7957814419815662 1.0000   
         C         C         1.0       0.35915945183554293           0.4158029226848263 0.7950748523927987 1.0000   
         C         C         1.0       0.3799511460083641  0.436890354482624   0.7623335041139987 1.0000   
         C         C         1.0       0.39816876138793467           0.4334842276466497 0.7323221297595218 1.0000   
         C         C         1.0       0.3965815211651529  0.4106307776606362  0.7378529892804371 1.0000   
         H         H         1.0       0.3387395552568154  0.3733486778427098  0.8217639662100588 1.0000   
         H         H         1.0       0.3447621211120727  0.41896291174652245           0.818653101811515  1.0000   
         H         H         1.0       0.41452478235204054           0.44843656109274377          0.7032688813528636 1.0000   
         H         H         1.0       0.41284757592676097           0.40992817401727133          0.7153444876414802 1.0000   
         C         C         1.0       0.43636490301760855           0.48560744692427077          0.8056090137303171 1.0000   
         C         C         1.0       0.42031586588968817           0.4896283281436361 0.7706636609142458 1.0000   
         C         C         1.0       0.4352424886170619  0.5140105629994159  0.7427807571915602 1.0000   
         C         C         1.0       0.46465344736001196           0.535314573213416  0.7541747254854918 1.0000   
         C         C         1.0       0.4807033610494473  0.5295395712615815  0.7864863508717931 1.0000   
         C         C         1.0       0.4664328009061728  0.5035411218867031  0.8095127030101982 1.0000   
         C         C         1.0       0.3860676326577573  0.4670568329199588  0.7633678101406142 1.0000   
         C         C         1.0       0.3740901815663034  0.47453870177743357           0.8125265479728755 1.0000   
         C         C         1.0       0.3646120770466294  0.49124460505633716           0.8058898720760178 1.0000   
         C         C         1.0       0.3532281053800671  0.49705183792678626           0.8466640100402089 1.0000   
         C         C         1.0       0.3529683190394993  0.49005561855872587           0.8974703364944046 1.0000   
         C         C         1.0       0.36373785154370025           0.4750924457985002 0.907425064753333  1.0000   
         C         C         1.0       0.3758584774377378  0.4688048455093116  0.8654769275777563 1.0000   
         C         C         1.0       0.37945020712532934           0.4637707046971453 0.655826712632033  1.0000   
         C         C         1.0       0.3600732306763293  0.448513591000959   0.6132905921201565 1.0000   
         C         C         1.0       0.3291492915594983  0.43108308545987856           0.6210372397822537 1.0000   
         C         C         1.0       0.31807055690459385           0.4333733402828337 0.6686489517771931 1.0000   
         C         C         1.0       0.33716207749054417           0.447989947770347  0.7112659861672405 1.0000   
         C         C         1.0       0.36860040982224274           0.46245543509309855          0.7076702498209899 1.0000   
         C         C         1.0       0.30625397263942455           0.4103583821667004 0.574375870550056  1.0000   
         C         C         1.0       0.300601544468782   0.4633635453077456  0.46209802239442976          1.0000   
         C         C         1.0       0.316192696723897   0.4536798524065925  0.44756866121516126          1.0000   
         C         C         1.0       0.32101811416778486           0.4399301374269344 0.4857391972869066 1.0000   
         C         C         1.0       0.30687516810562526           0.432765388944404  0.5350464869651012 1.0000   
         C         C         1.0       0.2893397280932846  0.4411191098420749  0.547222566436335  1.0000   
         C         C         1.0       0.2866158515437704  0.45723996681241535           0.5130757271577887 1.0000   
         C         C         1.0       0.271818493480404   0.3852621882062297  0.5893477385520415 1.0000   
         C         C         1.0       0.2656843108875229  0.37012128762081664           0.6363002894250186 1.0000   
         C         C         1.0       0.23732414923476308           0.3515165087087988 0.6533862648571366 1.0000   
         C         C         1.0       0.21355284073378764           0.3442461670567265 0.6190690238477841 1.0000   
         C         C         1.0       0.2187264711422378  0.3555491573031767  0.5690655362028868 1.0000   
         C         C         1.0       0.2480630127132926  0.3751312350976052  0.5528367458671313 1.0000   
         C         C         1.0       0.30601139670979915           0.3820801634308098 0.49613349762781167          1.0000   
         C         C         1.0       0.3159896893466363  0.36831784806138906           0.47344773812777174          1.0000   
         C         C         1.0       0.3328949260549802  0.3628624574035361  0.5015914356249446 1.0000   
         C         C         1.0       0.34031475905626907           0.37172243443219954          0.552661274605316  1.0000   
         C         C         1.0       0.33059748976539866           0.3860089778478829 0.5773136360218296 1.0000   
         C         C         1.0       0.31495418769334455           0.39289767122424607          0.54662969807733   1.0000   
         H         H         1.0       0.4242595230197106  0.4653975272566218  0.8268341420659305 1.0000   
         H         H         1.0       0.42416272120881354           0.5180509860364163 0.7141615807422458 1.0000   
         H         H         1.0       0.47719352899711887           0.5550055876824416 0.7325582639343937 1.0000   
         H         H         1.0       0.47714073984807504           0.49772350858873904          0.8354897001706634 1.0000   
         H         H         1.0       0.3626674097832742  0.497655425581195   0.7682080795585995 1.0000   
         H         H         1.0       0.34546955061703777           0.5095083489587697 0.8403764159244285 1.0000   
         H         H         1.0       0.36329350311019637           0.46846272901957586          0.9471226831028692 1.0000   
         H         H         1.0       0.3842885701773968  0.45733050360184585           0.8741680514658772 1.0000   
         H         H         1.0       0.40313045651266094           0.4759629449268574 0.6548420856806502 1.0000   
         H         H         1.0       0.37058974766223657           0.4501057210176454 0.5747507805221576 1.0000   
         H         H         1.0       0.2953244151238344  0.42208175281646    0.6745726902464254 1.0000   
         H         H         1.0       0.32601341730596217           0.444008141531205  0.7495831167902766 1.0000   
         H         H         1.0       0.3278925221135208  0.45831435348565536           0.41104830880958326          1.0000   
         H         H         1.0       0.334786591871231   0.434195551172504   0.4676075403427626 1.0000   
         H         H         1.0       0.2823460975612366  0.4381592174471418  0.5864637047368686 1.0000   
         H         H         1.0       0.27767517189817603           0.4684068923310462 0.5288302862239551 1.0000   
         H         H         1.0       0.28547596901098177           0.37537016148959473          0.657852580184001  1.0000   
         H         H         1.0       0.2342881899306091  0.34344060075893856           0.6929387975295572 1.0000   
         H         H         1.0       0.2024637958089761  0.3535621260495657  0.5414547022238186 1.0000   
         H         H         1.0       0.25152253343743214           0.3854980282799118 0.5171414081322399 1.0000   
         H         H         1.0       0.2898676811119303  0.38338944859791585           0.4733164086395632 1.0000   
         H         H         1.0       0.3104298748323434  0.36009320396757566           0.43318348043188953          1.0000   
         H         H         1.0       0.3527710474839334  0.36673775706608286           0.5772449732390862 1.0000   
         H         H         1.0       0.3330891150145919  0.3891681224290541  0.6189983248982747 1.0000   
         C         C         1.0       0.31020016749697515           0.47296401443167113          0.9656294370357681 1.0000   
         C         C         1.0       0.34079603972373307           0.4994505730026753 0.941049552465989  1.0000   
         H         H         1.0       0.2991702355888812  0.45624339975218897           0.9313659627056238 1.0000   
         H         H         1.0       0.29288682830783097           0.4768911649544571 0.9728192343449701 1.0000   
         H         H         1.0       0.3388302338116225  0.5149139692018482  0.9235314540877615 1.0000   
         H         H         1.0       0.35838950040917605           0.5104614736989793 0.9728382631174808 1.0000   
         C         C         1.0       0.3790074030125811  0.3685342332976275  0.45642681000670615          1.0000   
         C         C         1.0       0.34508716048340116           0.3484697404953212 0.4745269838904523 1.0000   
         H         H         1.0       0.3889935160549498  0.3885521154866712  0.4774248843614575 1.0000   
         H         H         1.0       0.39025622487683426           0.3605882867687336 0.47213005681407133          1.0000   
         H         H         1.0       0.34410872829527894           0.3346454450325244 0.5033923121780304 1.0000   
         H         H         1.0       0.3300046406367121  0.3358784330443127  0.43780399081743937          1.0000   
         C         C         1.0       0.4169374830079658  0.5408124897862128  0.31671719949311794          1.0000   
         C         C         1.0       0.4196046669546929  0.516714278795769   0.30886882581353303          1.0000   
         H         H         1.0       0.42673342851968427           0.5501591803640955 0.35431115531751534          1.0000   
         H         H         1.0       0.3930264240373293  0.5309951950315279  0.3251404743039614 1.0000   
         H         H         1.0       0.4433999106580054  0.5269559868555486  0.2922079611775279 1.0000   
         H         H         1.0       0.4194036552991383  0.508192696418805   0.3470088194579095 1.0000   
         C         C         1.0       0.5132789937133416  0.55092597477092    0.7947096969228965 1.0000   
         C         C         1.0       0.5275012816710861  0.5588085975829848  0.8502286484355538 1.0000   
         H         H         1.0       0.5241885884116206  0.5444402474555888  0.7678280827963895 1.0000   
         H         H         1.0       0.5195362384774235  0.5709323065587244  0.77831174368292   1.0000   
         H         H         1.0       0.5503352189530829  0.5710691567433831  0.8371811589352436 1.0000   
         H         H         1.0       0.5229215077959719  0.540585333276074   0.872919182843743  1.0000   
         C         C         1.0       0.4433490499102969  0.5971455925646119  0.7134321826852816 1.0000   
         C         C         1.0       0.4398638251455064  0.6152249741935794  0.7559144425352244 1.0000   
         H         H         1.0       0.4287550406352838  0.573499892249017   0.725579969570858  1.0000   
         H         H         1.0       0.4662255905857476  0.6045809227281553  0.7161904843067892 1.0000   
         H         H         1.0       0.44936145366012786           0.6364731506206581 0.7381636278518479 1.0000   
         H         H         1.0       0.4167010056425603  0.607037923313859   0.7634292975797404 1.0000   
         C         C         1.0       0.5920512183590725  0.7124443301297089  0.2643658606464185 1.0000   
         C         C         1.0       0.5760091856968167  0.7268962225285024  0.2680765915990401 1.0000   
         H         H         1.0       0.5932504730157506  0.7098801447143027  0.22192245518961443          1.0000   
         H         H         1.0       0.6161872651946403  0.727071027204749   0.26871641034640875          1.0000   
         H         H         1.0       0.5900930911211053  0.7453890486827282  0.2428513351378235 1.0000   
         H         H         1.0       0.5812143538433997  0.7340377696749222  0.3085576672130322 1.0000   
         C         C         1.0       0.32557855853196027           0.5029478830643618 0.3859179405292711 1.0000   
         C         C         1.0       0.2985683297323016  0.48032619371465834           0.4198342571435891 1.0000   
         H         H         1.0       0.33411942605853495           0.4931321563609535 0.3613374333857866 1.0000   
         H         H         1.0       0.31591506992040863           0.5090156554486026 0.3543981342240532 1.0000   
         H         H         1.0       0.27931493271151625           0.4643407957535824 0.3937033776393771 1.0000   
         H         H         1.0       0.2907659872152698  0.49117317361067286           0.43920029876906075          1.0000   
         C         C         1.0       0.5176261172948418  0.5111947242021582  0.3298554210351908 1.0000   
         C         C         1.0       0.5148530136867132  0.5036138858735716  0.2702489422828803 1.0000   
         H         H         1.0       0.4972644409577826  0.49330201442980337           0.35271154079862954          1.0000   
         H         H         1.0       0.5377334584915912  0.5127974019150539  0.34580000991780346          1.0000   
         H         H         1.0       0.5349787890822401  0.5053129621587443  0.259232090578693  1.0000   
         H         H         1.0       0.5184197819032161  0.5213907051920676  0.2480846722431457 1.0000   
         C         C         1.0       0.39150994209610623           0.2926323015330165 0.09659974701749707          1.0000   
         C         C         1.0       0.3876023203788511  0.31374045306488296           0.07227170240363656          1.0000   
         H         H         1.0       0.37396343643460167           0.27142750190498   0.07816753989988645          1.0000   
         H         H         1.0       0.38396267558123237           0.28914223205440004          0.14005442208137886          1.0000   
         H         H         1.0       0.3656409444135902  0.3038742857697703  0.054383633411171146         1.0000   
         H         H         1.0       0.4032696907197312  0.32519441578701097           0.03858417700376693          1.0000   
         C         C         1.0       0.3743131548199342  0.3622145989189498  0.7620339027681672 1.0000   
         C         C         1.0       0.3710090739767709  0.3513116229330992  0.7043321229853471 1.0000   
         H         H         1.0       0.35566647963347525           0.3476258005889634 0.7864395294773012 1.0000   
         H         H         1.0       0.39493833831476866           0.36895801178563103          0.7861445013276438 1.0000   
         H         H         1.0       0.35457794920670793           0.35181647475502914          0.6783555130528701 1.0000   
         H         H         1.0       0.36071662675893473           0.32920425425914374          0.7150465504095532 1.0000   
         C         C         1.0       0.5396063138323814  0.2851341239936329  0.8338058305077529 1.0000   
         C         C         1.0       0.5557188620714885  0.3159535226418595  0.856563716701439  1.0000   
         H         H         1.0       0.5263108786497984  0.2710635531399756  0.8671797519487671 1.0000   
         H         H         1.0       0.5566494637098616  0.28204001984963245           0.8227772805962285 1.0000   
         H         H         1.0       0.5785941518365827  0.3247976189690523  0.8647668209916868 1.0000   
         H         H         1.0       0.5563959781017485  0.33002977308601356           0.8216493887023911 1.0000   
         C         C         1.0       0.45139324061453223           0.3497134443245492 0.3438000051602677 1.0000   
         C         C         1.0       0.4213788478071353  0.3186647740889507  0.33690924621162627          1.0000   
         H         H         1.0       0.47059966500996003           0.3526663273072881 0.3210304831666989 1.0000   
         H         H         1.0       0.45078377367831957           0.36493185740497985          0.3237943914435617 1.0000   
         H         H         1.0       0.404888631402163   0.31969370438125844           0.3182205315308524 1.0000   
         H         H         1.0       0.4082685449220816  0.31107028429000955           0.3743493819191651 1.0000   
         C         C         1.0       0.5808090928539712  0.32701529834543347           0.4812844975233161 1.0000   
         C         C         1.0       0.5684115120698622  0.34343967509239026           0.4725534170606143 1.0000   
         H         H         1.0       0.5616262532698162  0.30406403277280486           0.4844526303430876 1.0000   
         H         H         1.0       0.5938180308208515  0.33010797715558177           0.4435686961989461 1.0000   
         H         H         1.0       0.5622895996209986  0.3402554729291098  0.4292954274966543 1.0000   
         H         H         1.0       0.5858341994848394  0.36549854933134374           0.47625070575197337          1.0000   
         C         C         1.0       0.6042177086482803  0.45163695151626304           0.9534502183407763 1.0000   
         C         C         1.0       0.60370448857773    0.4477249284992263  0.014955854760778209         1.0000   
         H         H         1.0       0.6203382351975577  0.4742553549853203  0.9476486799192938 1.0000   
         H         H         1.0       0.5846069883713096  0.4458935006526833  0.9327515336368465 1.0000   
         H         H         1.0       0.5998917427895871  0.46254969123840467           0.03612937534124594          1.0000   
         H         H         1.0       0.6278032592558878  0.457537927148251   0.02601562655504308          1.0000   
         C         C         1.0       0.6498404735638852  0.3533361392826102  0.09908689056012743          1.0000   
         C         C         1.0       0.6579358854750863  0.3341062635272081  0.11463805760411927          1.0000   
         H         H         1.0       0.625921709920223   0.34137838760928085           0.10534866261261011          1.0000   
         H         H         1.0       0.6586482289172435  0.36935130468314203           0.12965143990991113          1.0000   
         H         H         1.0       0.6799547142831378  0.34267602179124657           0.10042939989584365          1.0000   
         H         H         1.0       0.6479785291679924  0.3168879616231821  0.08966426293209229          1.0000   
         C         C         1.0       0.7703296179396568  0.46488879539644196           0.5681359099049279 1.0000   
         C         C         1.0       0.7597791147600411  0.46655592441453897           0.6230577084039913 1.0000   
         H         H         1.0       0.774383847998608   0.44876646037509416           0.5680690141954333 1.0000   
         H         H         1.0       0.7913235074624703  0.48381577168127493           0.5536738439248119 1.0000   
         H         H         1.0       0.7796477994056782  0.4749024398819693  0.6498953103220526 1.0000   
         H         H         1.0       0.7530733251276849  0.4808456532571199  0.6181920862800772 1.0000   
         C         C         1.0       0.5342510346320708  0.22197821934996756           0.4094013055661547 1.0000   
         C         C         1.0       0.5106595727206654  0.22761623972756906           0.4129023391055163 1.0000   
         H         H         1.0       0.5275840974773421  0.2072666940673172  0.3744565772242415 1.0000   
         H         H         1.0       0.5339355358958077  0.21082699546601488           0.44401989110256895          1.0000   
         H         H         1.0       0.49071469317688177           0.2089556255531383 0.42966367630620583          1.0000   
         H         H         1.0       0.5162004494447923  0.24315743685329522           0.44504530926301533          1.0000   
         C         C         1.0       0.6150931204173934  0.45549877479276807           0.5445928552581015 1.0000   
         C         C         1.0       0.5877083240020443  0.4539131461649537  0.5276075322378262 1.0000   
         H         H         1.0       0.6113635922564751  0.443714755099746   0.5825247788508272 1.0000   
         H         H         1.0       0.632998570698745   0.4764526713120796  0.5599099830697088 1.0000   
         H         H         1.0       0.5927874923445572  0.47500187834591956           0.5324692420840549 1.0000   
         H         H         1.0       0.5853208789759388  0.4508698830638533  0.4851972348798518 1.0000   
         C         C         1.0       0.1772774655466863  0.35081802973222925           0.14494130924076967          1.0000   
         C         C         1.0       0.1954251639388124  0.3642450432690874  0.19691129389606066          1.0000   
         H         H         1.0       0.1804253203671229  0.33444500306676606           0.1323816125633821 1.0000   
         H         H         1.0       0.18768168482456105           0.36717299026040645          0.11419589095499162          1.0000   
         H         H         1.0       0.1880105845534409  0.34651906557782014           0.2271893498099249 1.0000   
         H         H         1.0       0.1880961597366605  0.3766614226332513  0.2158398859171713 1.0000   
         C         C         1.0       0.17051225945464552           0.3436473226115614 0.6623772710034499 1.0000   
         C         C         1.0       0.18082200308006816           0.3264768310392563 0.6402495853369161 1.0000   
         H         H         1.0       0.17672121746459432           0.3610534469637201 0.6322136260563785 1.0000   
         H         H         1.0       0.18375847045224183           0.35433936716971626          0.6994553595173734 1.0000   
         H         H         1.0       0.16561129368402633           0.3103438525316648 0.6130829837346684 1.0000   
         H         H         1.0       0.17983993545355045           0.31466889590410235          0.6764281523716092 1.0000   
         C         C         1.0       0.9862384703781445  0.16908500906219504           0.8294104362884933 1.0000   
         C         C         1.0       0.999365665110788   0.16959513643559218           0.881753804829385  1.0000   
         H         H         1.0       0.9633588834250516  0.1587945090362901  0.833737762103164  1.0000   
         H         H         1.0       0.9849287286150356  0.15506922126134112           0.7966733508482532 1.0000   
         H         H         1.0       0.9940397446249429  0.14883265127507292           0.883371112395299  1.0000   
         H         H         1.0       0.0246380193362552  0.18463278043837064           0.8772682728302664 1.0000   
         C         C         1.0       0.023410268523538447          0.32959478280033516          0.3735799452280454 1.0000   
         C         C         1.0       0.9885358158615357  0.31062456949843453           0.37853082747806893          1.0000   
         H         H         1.0       0.032267794067585065          0.3249068915318287 0.4060318653255947 1.0000   
         H         H         1.0       0.033978972742909175          0.35171162266048234          0.37629226551558914          1.0000   
         H         H         1.0       0.9764327551340033  0.2979402549474965  0.34157047595658063          1.0000   
         H         H         1.0       0.9790621820072117  0.3226285633881344  0.3820705135758431 1.0000   
         C         C         1.0       0.04394723644287146           0.3687529535834614 0.9102577719604213 1.0000   
         C         C         1.0       0.0666781765419906  0.3708069943031463  0.8666786671325102 1.0000   
         H         H         1.0       0.05457733823826927           0.3869518553059367 0.9354691549655308 1.0000   
         H         H         1.0       0.03712930542890036           0.35210104269263653          0.9384943290441482 1.0000   
         H         H         1.0       0.08704442956425784           0.3745132485985053 0.8874164079344612 1.0000   
         H         H         1.0       0.0735027963630579  0.3892393974334756  0.8435203727388634 1.0000   
         C         C         1.0       0.832404952198989   0.1756441500903273  0.012892325512100289         1.0000   
         C         C         1.0       0.8518234075278125  0.1684317190956323  0.9893852945920733 1.0000   
         H         H         1.0       0.8385035991085696  0.18351573250232814           0.05521149001031467          1.0000   
         H         H         1.0       0.8096490316602681  0.1563331615902159  0.016772571781722867         1.0000   
         H         H         1.0       0.8612931512108752  0.17941321074075178           0.9516119998352104 1.0000   
         H         H         1.0       0.8391922987992866  0.14750884699836606           0.9753315647704248 1.0000   
         C         C         1.0       0.7908283559813709  0.2997299599143737  0.12405448783506112          1.0000   
         C         C         1.0       0.7926722677189174  0.3066744393757916  0.06483026480456866          1.0000   
         H         H         1.0       0.7896653072050043  0.3148836354459247  0.14715358980254822          1.0000   
         H         H         1.0       0.769809985606909   0.2785261282319694  0.13311762881997358          1.0000   
         H         H         1.0       0.8102808588551315  0.3299407248970272  0.05792168758349514          1.0000   
         H         H         1.0       0.7705251784752156  0.29967003021311184           0.04805776723700461          1.0000   
         C         C         1.0       0.9558058494889414  0.3526615734559201  0.5394581962517955 1.0000   
         C         C         1.0       0.9676777248115893  0.3402659161461814  0.5777297899425318 1.0000   
         H         H         1.0       0.973033199249224   0.36594260116148974           0.5103673219877042 1.0000   
         H         H         1.0       0.9496211297951843  0.3649279273403203  0.5635234549945991 1.0000   
         H         H         1.0       0.9573224731640333  0.3166311674471404  0.5755790652555005 1.0000   
         H         H         1.0       0.9918518150486385  0.3527544791885034  0.5710849920251263 1.0000   
         C         C         1.0       0.9475865855039168  0.2787980875769011  0.004231724681065031         1.0000   
         C         C         1.0       0.9781452139548599  0.30695762404709087           0.9925395407387012 1.0000   
         H         H         1.0       0.952917143621516   0.2658554698240484  0.024625720766252582         1.0000   
         H         H         1.0       0.9334390863348193  0.26885924684041107           0.9696876120384197 1.0000   
         H         H         1.0       0.9782357088710643  0.32500851104413997           0.9852173490695586 1.0000   
         H         H         1.0       0.982797130947559   0.2996823177678045  0.956476205947475  1.0000   
         C         C         1.0       0.8133348084742775  0.17656315359818264           0.5207437059258776 1.0000   
         C         C         1.0       0.8284957595775428  0.18151859238873916           0.5746199516662054 1.0000   
         H         H         1.0       0.7898544266049319  0.16694382496752616           0.5335074643911313 1.0000   
         H         H         1.0       0.8127271670405632  0.16138059533589433           0.49699775829381765          1.0000   
         H         H         1.0       0.8279407997483529  0.19679349785122033           0.600689144817733  1.0000   
         H         H         1.0       0.8173820477003768  0.16444945198221994           0.6053826878368685 1.0000   
         C         C         1.0       0.3740114183222824  0.651780589949704   0.1376059693522833 1.0000   
         C         C         1.0       0.3516735196360339  0.6288313553778421  0.09572214054592143          1.0000   
         H         H         1.0       0.3591000003918084  0.6470704833232017  0.17240347368633557          1.0000   
         H         H         1.0       0.3826994895748643  0.6715358050804432  0.1221877706157326 1.0000   
         H         H         1.0       0.34014870442386413           0.6074685885926757 0.11553852177146928          1.0000   
         H         H         1.0       0.36594427490769627           0.6297892318878807 0.06346537136185937          1.0000   
         C         C         1.0       0.44092849024436087           0.7123052070785544 0.47088439410301114          1.0000   
         C         C         1.0       0.4356205881608408  0.721050871150603   0.4178221652525465 1.0000   
         H         H         1.0       0.42725108371343623           0.7137130509802522 0.5007095823759727 1.0000   
         H         H         1.0       0.465664275291611   0.7303895866847027  0.4835671831579639 1.0000   
         H         H         1.0       0.4485978824200019  0.7440117230402711  0.41624159508130737          1.0000   
         H         H         1.0       0.44393575668275226           0.7141997395866423 0.3874270871374929 1.0000   
         C         C         1.0       0.30650820884699664           0.7003987878068249 0.7618429411150266 1.0000   
         C         C         1.0       0.3105334115849762  0.727476114819557   0.7583642620737152 1.0000   
         H         H         1.0       0.29130548314029425           0.6833480932226448 0.7307506250506326 1.0000   
         H         H         1.0       0.3282805826059818  0.7045659656000688  0.7482382543245856 1.0000   
         H         H         1.0       0.33452134672184497           0.7450366556934626 0.76388978854096   1.0000   
         H         H         1.0       0.2958281216283001  0.7272337175436967  0.78713840542701   1.0000   
         C         C         1.0       0.35829140595128056           0.8135953091330794 0.2881596803743915 1.0000   
         C         C         1.0       0.380502345042144   0.8251716742115381  0.24081450352594833          1.0000   
         H         H         1.0       0.3381570109632436  0.8117713715491364  0.2802473655963784 1.0000   
         H         H         1.0       0.3688556657174066  0.8263482624458194  0.32325650132139117          1.0000   
         H         H         1.0       0.3979148720411405  0.8229614087463777  0.24614127047163073          1.0000   
         H         H         1.0       0.39321102398187935           0.849433344936908  0.23584843258748275          1.0000   
         C         C         1.0       0.9437237777494986  0.44895130944020606           0.7720279148362342 1.0000   
         C         C         1.0       0.9330150748743027  0.4559999852389147  0.8245104435719224 1.0000   
         H         H         1.0       0.9649593109156234  0.465176917864732   0.7547592992798009 1.0000   
         H         H         1.0       0.9299041066591698  0.44654749126023224           0.7360575523453526 1.0000   
         H         H         1.0       0.9275357730889463  0.4408236667333545  0.8536729271474438 1.0000   
         H         H         1.0       0.9125316879912043  0.452957235408284   0.8171057711721571 1.0000   
         C         C         1.0       0.14519021401224075           0.590500216859093  0.9524227813849412 1.0000   
         C         C         1.0       0.1500137951420184  0.5689782370476038  0.9710437852040584 1.0000   
         H         H         1.0       0.15445966048173054           0.6060008943273143 0.9844226435419055 1.0000   
         H         H         1.0       0.15951401029585566           0.6041410270661521 0.9214558776731386 1.0000   
         H         H         1.0       0.1402783543936923  0.5521931314530155  0.9407304501953767 1.0000   
         H         H         1.0       0.13717504594378993           0.5585311664310992 0.010870629904593532         1.0000   
         C         C         1.0       0.1976974783807845  0.5985817595201922  0.6914821620457371 1.0000   
         C         C         1.0       0.20814458844070272           0.6171675105425054 0.7444361396193989 1.0000   
         H         H         1.0       0.17295514644654708           0.5831390410536677 0.6918484526379384 1.0000   
         H         H         1.0       0.20643061243144523           0.5869805615762144 0.688587567914131  1.0000   
         H         H         1.0       0.23085824889760836           0.6328623405080684 0.7489017437455233 1.0000   
         H         H         1.0       0.20338032714411663           0.6047937646953464 0.7788826388309351 1.0000   
         C         C         1.0       0.016416059746609646          0.4376431363096527 0.22398191752029006          1.0000   
         C         C         1.0       0.017379929206082556          0.420000966819032  0.1777186597631212 1.0000   
         H         H         1.0       0.013004888026213912          0.427086909174064  0.260925767888365  1.0000   
         H         H         1.0       0.9960787462331047  0.43601806308857805           0.22203602460025512          1.0000   
         H         H         1.0       0.03572443668259617           0.41744394721705186          0.18658666532334436          1.0000   
         H         H         1.0       0.025960645597590926          0.4317869251698475 0.14134445640521887          1.0000   
         C         C         1.0       0.012963554510207587          0.6400558588638571 0.0708114947005436 1.0000   
         C         C         1.0       0.9886208479072078  0.6135702578276477  0.03973889697423205          1.0000   
         H         H         1.0       0.026613320592248302          0.6569594191064997 0.04488906278237459          1.0000   
         H         H         1.0       0.0029463107511886744         0.6484248220341078 0.0934920287655614 1.0000   
         H         H         1.0       0.9724550830714065  0.6157775875979105  0.020136132805082196         1.0000   
         H         H         1.0       0.9732359381172451  0.5971453702018247  0.07061305864047207          1.0000   
         C         C         1.0       0.09054671636243805           0.567397519587442  0.5133474170330646 1.0000   
         C         C         1.0       0.11699174973081883           0.569598555636761  0.4899685571107902 1.0000   
         H         H         1.0       0.07212436091524    0.5464548550622729  0.525019854106528  1.0000   
         H         H         1.0       0.08225386868420648           0.575692951199935  0.4852753584112002 1.0000   
         H         H         1.0       0.11779214361005619           0.5533327837771048 0.5083817400822594 1.0000   
         H         H         1.0       0.13749209394289807           0.5893527318934051 0.5035620843754687 1.0000   
         C         C         1.0       0.23771190804954556           0.6022843705318719 0.16969222335874523          1.0000   
         C         C         1.0       0.2640201532324358  0.6080477283288384  0.20497137994930115          1.0000   
         H         H         1.0       0.23672448232914922           0.5891568673140136 0.14020480932308022          1.0000   
         H         H         1.0       0.2434610855107433  0.6199182006054368  0.1452843959953768 1.0000   
         H         H         1.0       0.28185526255911797           0.6123395447405181 0.17627807957050792          1.0000   
         H         H         1.0       0.2567362687496497  0.5888848579783318  0.22525403016698783          1.0000   
         C         C         1.0       0.20620164199412128           0.7680563639207469 0.0733875817373677 1.0000   
         C         C         1.0       0.19073430323933516           0.7599989896312778 0.12757227258656645          1.0000   
         H         H         1.0       0.2085556574228533  0.7859093643596201  0.058346735496199065         1.0000   
         H         H         1.0       0.19027161405959792           0.7514731838361239 0.044662479234997665         1.0000   
         H         H         1.0       0.17942439929727771           0.7704276897398697 0.13378296384307564          1.0000   
         H         H         1.0       0.20931388281910404           0.7704935132052361 0.15876748314674247          1.0000   
         C         C         1.0       0.0722575880707288  0.9927437643495369  0.7323819549793941 1.0000   
         C         C         1.0       0.10272763389722095           0.9977314676299884 0.7288008329273262 1.0000   
         H         H         1.0       0.06380539538487673           0.9893363900969974 0.7734685767554226 1.0000   
         H         H         1.0       0.0753149256697605  0.011481790955925941         0.7231414139886607 1.0000   
         H         H         1.0       0.11669375359902845           0.01464754156678949          0.7015866144166504 1.0000   
         H         H         1.0       0.10261082860629034           0.9809250913621873 0.7081123508859688 1.0000   
         C         C         1.0       0.06264875861427854           0.9498232061580617 0.3291789054382181 1.0000   
         C         C         1.0       0.09457556205493312           0.9657994511306174 0.3533223767480171 1.0000   
         H         H         1.0       0.052933476591256134          0.9606776472476385 0.3418266430871078 1.0000   
         H         H         1.0       0.04635455496928542           0.9283052653513336 0.3454420317876704 1.0000   
         H         H         1.0       0.11063163432475398           0.9681067176579666 0.32386093001929556          1.0000   
         H         H         1.0       0.10351916084135415           0.9880675292406513 0.3609101875464987 1.0000   
         C         C         1.0       0.1209478843143541  0.743882951672927   0.6141035448581792 1.0000   
         C         C         1.0       0.1429686387373792  0.7357193093534643  0.612135028222624  1.0000   
         H         H         1.0       0.09834258248829997           0.724152542626348  0.6057524444020462 1.0000   
         H         H         1.0       0.122830949782468   0.7556105667422696  0.5764922919803306 1.0000   
         H         H         1.0       0.16776635913412097           0.75312346909756   0.6151085691719002 1.0000   
         H         H         1.0       0.14292137633048152           0.728411551888541  0.5722997769049106 1.0000   
         C         C         1.0       0.9114151521420657  0.78148081945148    0.7949619141791905 1.0000   
         C         C         1.0       0.9023380813499609  0.788273760352788   0.7403298511726116 1.0000   
         H         H         1.0       0.8902595385429538  0.7673198230928088  0.8186593766337805 1.0000   
         H         H         1.0       0.9250885722245287  0.7994462397396844  0.8232109857229614 1.0000   
         H         H         1.0       0.8835908349011052  0.7904997688686665  0.7465487473465422 1.0000   
         H         H         1.0       0.8908031243930694  0.7684346788588194  0.7172184552553458 1.0000   
         C         C         1.0       0.18724839136031712           0.9210543231039018 0.8033242135181826 1.0000   
         C         C         1.0       0.20045439545461896           0.9345382537407767 0.8564745479788962 1.0000   
         H         H         1.0       0.20591495357920775           0.928257313202801  0.775010485273211  1.0000   
         H         H         1.0       0.1755807441619488  0.9292025429390304  0.7855833411959826 1.0000   
         H         H         1.0       0.22361473814841992           0.9503371146252769 0.8487146683216277 1.0000   
         H         H         1.0       0.20143634688035683           0.921100944023184  0.884037749774131  1.0000   
         C         C         1.0       0.10362505066354233           0.6626538767806224 0.477361243847553  1.0000   
         C         C         1.0       0.0858247040565947  0.635445359597169   0.44464459991703853          1.0000   
         H         H         1.0       0.09758552988448455           0.655262092543435  0.5196610342978367 1.0000   
         H         H         1.0       0.12722715455869094           0.6742310478503879 0.47180183126889896          1.0000   
         H         H         1.0       0.0624397716438152  0.6243028857915351  0.451111934640196  1.0000   
         H         H         1.0       0.09205667867502898           0.6226940254142637 0.46081048825202636          1.0000   
         C         C         1.0       0.13669247674052265           0.7693968499474785 0.006530657816683938         1.0000   
         C         C         1.0       0.11579819503159783           0.7386450268845166 0.02091681476308671          1.0000   
         H         H         1.0       0.15960468972029807           0.776113084640868  0.005109176749416022         1.0000   
         H         H         1.0       0.1372962939784832  0.7821876018774638  0.04024369935816563          1.0000   
         H         H         1.0       0.10751088246359886           0.7268781127820488 0.9816763161446451 1.0000   
         H         H         1.0       0.13273780022018378           0.7350551911420513 0.03825380892537367          1.0000   
         C         C         1.0       0.9390012201151687  0.6740303941206416  0.5143490754240003 1.0000   
         C         C         1.0       0.9411278501553009  0.6659605378073539  0.5719568448617031 1.0000   
         H         H         1.0       0.933971528855563   0.6892053383333843  0.5171008001030408 1.0000   
         H         H         1.0       0.9188203271612247  0.6561739167551871  0.4934214636374837 1.0000   
         H         H         1.0       0.9184069867901571  0.6476582070811311  0.5817041137215198 1.0000   
         H         H         1.0       0.9530103940032993  0.6571325145869372  0.571652874470941  1.0000   
         C         C         1.0       0.1010222650689776  0.8417180382824676  0.0661746975171489 1.0000   
         C         C         1.0       0.08914336370334386           0.8542104138680114 0.030402375038615096         1.0000   
         H         H         1.0       0.11800407007497093           0.8597321334856795 0.0878484540760265 1.0000   
         H         H         1.0       0.1136479132212147  0.8372910899553206  0.043774257479783925         1.0000   
         H         H         1.0       0.07261992294653763           0.8368058853379696 0.0017698818862934562        1.0000   
         H         H         1.0       0.10774609426386261           0.8712644157085843 0.005497857495874837         1.0000   
         C         C         1.0       0.15093028595240754           0.8335665834049357 0.5240246115080772 1.0000   
         C         C         1.0       0.16047508116200637           0.8603043495295272 0.4929337545207999 1.0000   
         H         H         1.0       0.17232989319060454           0.8345701727541712 0.5242192838276942 1.0000   
         H         H         1.0       0.14664453439847258           0.8356307028956792 0.5665565539913907 1.0000   
         H         H         1.0       0.15950867886115572           0.8577165751797581 0.44907457948873103          1.0000   
         H         H         1.0       0.18414257914062326           0.8744218048836218 0.4987660445353521 1.0000   
         C         C         1.0       0.7889665400203709  0.48442122565405715           0.8281936271035929 1.0000   
         C         C         1.0       0.7956888155410492  0.509882744996503   0.8595924186957838 1.0000   
         H         H         1.0       0.8045084278967222  0.4808665001259777  0.8419094798609276 1.0000   
         H         H         1.0       0.7971267952464258  0.49101456574961744           0.7858672012901741 1.0000   
         H         H         1.0       0.8210907434461686  0.5271965498671456  0.8626849400251718 1.0000   
         H         H         1.0       0.7902188716360758  0.5031161502145652  0.9029089009360782 1.0000   
         C         C         1.0       0.8818955194166598  0.6708642762013124  0.9670864980200132 1.0000   
         C         C         1.0       0.9012397901386483  0.6614186978506517  0.9531874534616415 1.0000   
         H         H         1.0       0.8964001420912567  0.6924465210372264  0.9805217909443906 1.0000   
         H         H         1.0       0.8693200072387876  0.6593828135058056  0.0032684255540418317        1.0000   
         H         H         1.0       0.9151166146158999  0.661893801312822   0.9860890394813444 1.0000   
         H         H         1.0       0.8855308221769673  0.6397653012387395  0.9384632854587601 1.0000   
         C         C         1.0       0.7216256529247284  0.5027910442542622  0.15901451846917966          1.0000   
         C         C         1.0       0.7020164960911881  0.47215235659176147           0.17641186604424203          1.0000   
         H         H         1.0       0.7302322575253493  0.503739534315868   0.11581788996576381          1.0000   
         H         H         1.0       0.7445440708777554  0.513714088337413   0.17953547047637455          1.0000   
         H         H         1.0       0.7052085830817522  0.457485448173313   0.15376451136542635          1.0000   
         H         H         1.0       0.6796377126065586  0.4633182616463569  0.16158629454568796          1.0000   
         C         C         1.0       0.91029672092489    0.644533535281537   0.2777601364305508 1.0000   
         C         C         1.0       0.9145572227682754  0.6535542691221636  0.21941670534314534          1.0000   
         H         H         1.0       0.9291231948462944  0.6612739198600012  0.3004085136682344 1.0000   
         H         H         1.0       0.9112846767275884  0.627704353102467   0.29364962620263335          1.0000   
         H         H         1.0       0.9054603384253227  0.6354850763853996  0.19039138308028158          1.0000   
         H         H         1.0       0.9023037623717353  0.6624598932216554  0.20861990890396287          1.0000   
         C         C         1.0       0.7205842586041283  0.6693652443055882  0.04151460055099343          1.0000   
         C         C         1.0       0.751344222209393   0.6919532938644036  0.01978414639647985          1.0000   
         H         H         1.0       0.7037198585924797  0.6555468986867904  0.014079476865411777         1.0000   
         H         H         1.0       0.7105112476937269  0.6786442226691141  0.05839197981775435          1.0000   
         H         H         1.0       0.7512596621138253  0.7104444387102697  0.006493967224373787         1.0000   
         H         H         1.0       0.7663058515083214  0.6989122427227517  0.055814772902127885         1.0000   
         C         C         1.0       0.7193574552463258  0.5259437796918539  0.5377859258651001 1.0000   
         C         C         1.0       0.7534594382296207  0.540461053507224   0.5267480001670629 1.0000   
         H         H         1.0       0.7019191355664325  0.5050160921560887  0.5178191754945323 1.0000   
         H         H         1.0       0.7145151092633102  0.5394249244679039  0.5187195833719254 1.0000   
         H         H         1.0       0.7538794543858423  0.5234355641827103  0.5129039868115173 1.0000   
         H         H         1.0       0.7675376291780013  0.5493163151648917  0.5631046972411592 1.0000   
         C         C         1.0       0.6033427290527005  0.7519021918273845  0.0046939429695285195        1.0000   
         C         C         1.0       0.608760265844873   0.7557112929786497  0.06595612098513803          1.0000   
         H         H         1.0       0.5982203341566279  0.7645913428870442  0.9891166076291374 1.0000   
         H         H         1.0       0.6258860700397114  0.7617185200502642  0.9851735874550246 1.0000   
         H         H         1.0       0.5886857368871412  0.7488903816686816  0.08597352390204804          1.0000   
         H         H         1.0       0.6228472885659331  0.7788341570568236  0.07683739481001317          1.0000   
         C         C         1.0       0.5799445752218122  0.5793101907402959  0.19996315731661718          1.0000   
         C         C         1.0       0.5951101742052094  0.5745975317990173  0.24524770723375133          1.0000   
         H         H         1.0       0.5581275335338395  0.5725470093561021  0.21372439793642517          1.0000   
         H         H         1.0       0.5743639045695874  0.5654466551042612  0.16595152981611516          1.0000   
         H         H         1.0       0.578148311471268   0.5550892183319407  0.26303523743613383          1.0000   
         H         H         1.0       0.601383492388136   0.5912344005678838  0.27600735034385426          1.0000   
         C         C         1.0       0.7699874054117859  0.7386328147472221  0.7344447139892175 1.0000   
         C         C         1.0       0.7743195767261404  0.7222339589280946  0.6924511236815896 1.0000   
         H         H         1.0       0.770092767504708   0.7542711740948951  0.7124839925334693 1.0000   
         H         H         1.0       0.790847799795399   0.7530910933812892  0.7535252380892883 1.0000   
         H         H         1.0       0.7540696824652076  0.7126364774192645  0.6674007553958458 1.0000   
         H         H         1.0       0.7910640114259564  0.7373177338997667  0.6647452959908394 1.0000   
         C         C         1.0       0.5298340339347253  0.5884408183840435  0.656501945539572  1.0000   
         C         C         1.0       0.5445540200313201  0.6177306773326913  0.6313752140584725 1.0000   
         H         H         1.0       0.5117880314898774  0.5716669305020707  0.6305497689016161 1.0000   
         H         H         1.0       0.5187161481208376  0.5878433301164644  0.6901673924452145 1.0000   
         H         H         1.0       0.5284930300979019  0.621060094583827   0.6481205774567736 1.0000   
         H         H         1.0       0.5662927586826885  0.6333981631772037  0.6505953020454451 1.0000   
         C         C         1.0       0.6394610925991044  0.5561338392005757  0.916673607389324  1.0000   
         C         C         1.0       0.6343596325781923  0.573550007944399   0.9523122827906433 1.0000   
         H         H         1.0       0.6296206689381202  0.535802545682951   0.9325816725691882 1.0000   
         H         H         1.0       0.6631753341332864  0.5652162423531488  0.9210837280203051 1.0000   
         H         H         1.0       0.6100805146063204  0.5587960193987109  0.9615048947562612 1.0000   
         H         H         1.0       0.6487458690271904  0.5774376877547238  0.9908582863436498 1.0000   
         C         C         1.0       0.7151022171451366  0.6957076200842756  0.31759322980716737          1.0000   
         C         C         1.0       0.6929561345449535  0.6638910337780382  0.3242412718058197 1.0000   
         H         H         1.0       0.7145239973861057  0.7071102865471166  0.3501152716161144 1.0000   
         H         H         1.0       0.737259532292145   0.7019372586979014  0.3205513343104483 1.0000   
         H         H         1.0       0.7028836045470662  0.6540319725663514  0.3065287429209736 1.0000   
         H         H         1.0       0.6702140676233471  0.6548496824951564  0.30461817921248935          1.0000   
         C         C         1.0       0.5825559602218138  0.45008860081939156           0.6981054883285323 1.0000   
         C         C         1.0       0.5867181803660191  0.4479781869596215  0.7597532743736181 1.0000   
         H         H         1.0       0.5594995632568012  0.4317851764646359  0.6841766420398728 1.0000   
         H         H         1.0       0.5994767419421856  0.44813475488511495           0.680136613169775  1.0000   
         H         H         1.0       0.5775099764995028  0.42556423245193575           0.7707397750572963 1.0000   
         H         H         1.0       0.5692407135952419  0.44742223370288714           0.7817455828388654 1.0000   
         C         C         1.0       0.8169912835980883  0.7318098186547289  0.5177842729530525 1.0000   
         C         C         1.0       0.8197436831600319  0.7277607477214882  0.45491205256320166          1.0000   
         H         H         1.0       0.8295222897558013  0.7552706763879136  0.5214562013983894 1.0000   
         H         H         1.0       0.8320244721219001  0.7290391855256924  0.5428367469618754 1.0000   
         H         H         1.0       0.8430367294233913  0.7466123169531347  0.4434809917837937 1.0000   
         H         H         1.0       0.8021012919991107  0.7301040902964696  0.43674572428618563          1.0000   
         C         C         1.0       0.9086749936714084  0.911268633055434   0.44949041602763984          1.0000   
         C         C         1.0       0.9437542614300919  0.9262395523730698  0.4645961379736775 1.0000   
         H         H         1.0       0.9082734577782434  0.917634790955983   0.4103859245404361 1.0000   
         H         H         1.0       0.9001720549855394  0.8894336180729059  0.4488194520683634 1.0000   
         H         H         1.0       0.9497946672275667  0.946382960360702   0.4839580320082159 1.0000   
         H         H         1.0       0.9569223125289739  0.9336229570153801  0.4283611215332935 1.0000   
         C         C         1.0       0.9738235646099745  0.14184265200709256           0.5053365466312322 1.0000   
         C         C         1.0       0.9459538585493732  0.11214169932047158           0.48927217281712143          1.0000   
         H         H         1.0       0.9894614512058357  0.14923331365987935           0.46906480078888085          1.0000   
         H         H         1.0       0.9860959916333742  0.14004671052434148           0.5387729743687903 1.0000   
         H         H         1.0       0.9540540435577739  0.10179252161642681           0.46512671259165345          1.0000   
         H         H         1.0       0.9317717944790097  0.11349258682902419           0.46435401463237136          1.0000   
         C         C         1.0       0.9317178838822362  0.9032623143818251  0.9901547660529602 1.0000   
         C         C         1.0       0.9453716787024866  0.9114731216405657  0.045459407494615085         1.0000   
         H         H         1.0       0.9157128778729143  0.8804897342086222  0.9899652298866802 1.0000   
         H         H         1.0       0.950283968379618   0.9084291593158814  0.9605453355756018 1.0000   
         H         H         1.0       0.9299298139417678  0.8979931939781456  0.07646653928959579          1.0000   
         H         H         1.0       0.9498550837230985  0.9325547068283871  0.05632584154881903          1.0000   
         C         C         1.0       0.9586741293434498  0.09449324893155464           0.23995096281800815          1.0000   
         C         C         1.0       0.9569221587583058  0.11898728256912272           0.25391726417734395          1.0000   
         H         H         1.0       0.9719823258398886  0.09180055294773125           0.26767039508379203          1.0000   
         H         H         1.0       0.9710852075770814  0.09802044897037154           0.20283317802992656          1.0000   
         H         H         1.0       0.9377682910580819  0.11028729765381562           0.28262062491943696          1.0000   
         H         H         1.0       0.9763022114197405  0.1343656957118553  0.28033257969285685          1.0000   
         C         C         1.0       0.977336973357352   0.0843304157390965  0.856002765390086  1.0000   
         C         C         1.0       0.9686516101989395  0.08585510066892743           0.9114172434909429 1.0000   
         H         H         1.0       0.9833651358781639  0.07021498470029641           0.8556915012928504 1.0000   
         H         H         1.0       0.9974129885918999  0.10549597371110964           0.8446943165972104 1.0000   
         H         H         1.0       0.957691824016347   0.09656234375716721           0.9054331872809587 1.0000   
         H         H         1.0       0.9887039281801699  0.09930591584837645           0.9392713654861344 1.0000   
         C         C         1.0       0.7988963780500383  0.8924663682175431  0.345696105062219  1.0000   
         C         C         1.0       0.7791426508704521  0.8957320604463399  0.3778102284785411 1.0000   
         H         H         1.0       0.786135922719308   0.8728730483306113  0.32217756406273595          1.0000   
         H         H         1.0       0.8148656383449977  0.8917817025945973  0.3718599088165044 1.0000   
         H         H         1.0       0.7740407620167827  0.9092155499439766  0.3562424263108581 1.0000   
         H         H         1.0       0.7578784156693835  0.875060101672379   0.37951530018191687          1.0000   
         C         C         1.0       0.5853215661916269  0.729798376039234   0.8226087811713718 1.0000   
         C         C         1.0       0.5969254298966677  0.7162929490709858  0.7878841683476382 1.0000   
         H         H         1.0       0.5753614445448819  0.7177257054961973  0.8572168212129188 1.0000   
         H         H         1.0       0.5670774825487073  0.7277890715293603  0.8011272318884898 1.0000   
         H         H         1.0       0.5780971732153543  0.6978425052588937  0.7656439245378788 1.0000   
         H         H         1.0       0.6101246054654501  0.7309868720149062  0.7568459168860328 1.0000   
         C         C         1.0       0.7870793883487645  0.04125266222118795           0.7569962930512362 1.0000   
         C         C         1.0       0.7720815040674098  0.033563073409499156         0.81426885303891   1.0000   
         H         H         1.0       0.7722183138850678  0.02549018687635174           0.7262619519538843 1.0000   
         H         H         1.0       0.7902762907953261  0.05984814134397931           0.7408129002259373 1.0000   
         H         H         1.0       0.7698658620718875  0.049539437334503944         0.8294008165027992 1.0000   
         H         H         1.0       0.7855854420417349  0.03642467786460868           0.847561780196371  1.0000   
         C         C         1.0       0.7795369768223616  0.9368052052408518  0.7891991054891602 1.0000   
         C         C         1.0       0.7983643548927343  0.9269276082571694  0.7941748307771774 1.0000   
         H         H         1.0       0.7775776052872475  0.9401866564396473  0.7457148968305093 1.0000   
         H         H         1.0       0.7891642841856977  0.9568117445609519  0.8115422246846932 1.0000   
         H         H         1.0       0.8118183199694966  0.9334831396793457  0.7596071066892846 1.0000   
         H         H         1.0       0.7843803377741361  0.9031887794054819  0.7963691121913657 1.0000   
         C         C         1.0       0.5942782485054486  0.6899061943334349  0.629230354489736  1.0000   
         C         C         1.0       0.6169147815859723  0.6890938463166435  0.661847102926145  1.0000   
         H         H         1.0       0.5748233038378443  0.6844837922656469  0.6542809566411116 1.0000   
         H         H         1.0       0.5845595848239807  0.6730099456815237  0.60321118000747   1.0000   
         H         H         1.0       0.606163375100529   0.6742299001495007  0.6917842242756632 1.0000   
         H         H         1.0       0.6317588494403031  0.7100461377439529  0.6816644044357025 1.0000   
         C         C         1.0       0.6220856461133867  0.8964550919915388  0.5971708024112402 1.0000   
         C         C         1.0       0.604015510158196   0.8651908406984018  0.6038636715861712 1.0000   
         H         H         1.0       0.6102783111427061  0.9019137799791467  0.5753994583279463 1.0000   
         H         H         1.0       0.641066193919639   0.9036077054045694  0.5739460253453597 1.0000   
         H         H         1.0       0.5872123220893039  0.8560562274674118  0.5712387287879638 1.0000   
         H         H         1.0       0.5906457252120354  0.8580769798055913  0.6384215430104024 1.0000   
         C         C         1.0       0.6768132109882294  0.8173046922885059  0.15290823126548195          1.0000   
         C         C         1.0       0.698235607714007   0.8395806229003403  0.11297344202674232          1.0000   
         H         H         1.0       0.6820817970079174  0.802602186512935   0.15977090771450514          1.0000   
         H         H         1.0       0.6552897314084953  0.8010892712748752  0.13299264298674007          1.0000   
         H         H         1.0       0.7079030195752525  0.8612524858199008  0.12365945497633636          1.0000   
         H         H         1.0       0.7167837714823434  0.8380514389783003  0.10817420744875639          1.0000   
         C         C         1.0       0.7388075956292941  0.9767330163015149  0.3093477578526436 1.0000   
         C         C         1.0       0.7471497369296024  0.9857697047197888  0.25294545147774516          1.0000   
         H         H         1.0       0.7257697724319645  0.9841820179641427  0.32639933562634704          1.0000   
         H         H         1.0       0.7586671350026915  0.9886555106322079  0.33606216968072417          1.0000   
         H         H         1.0       0.7535480981696137  0.007235615396844253         0.2516438838458443 1.0000   
         H         H         1.0       0.7279215423739603  0.974484702822537   0.22555529560093496          1.0000   
         C         C         1.0       0.7527678101638763  0.8208089642367138  0.7162788658287549 1.0000   
         C         C         1.0       0.7711272142855176  0.8472626984986936  0.751646788808171  1.0000   
         H         H         1.0       0.7401090763579945  0.8016041233049059  0.7433644065454549 1.0000   
         H         H         1.0       0.7696450181474441  0.8199308209951208  0.6945956131747    1.0000   
         H         H         1.0       0.7850842714800782  0.8459457247841796  0.7802055523236548 1.0000   
         H         H         1.0       0.75525779949579    0.8501423226183893  0.7766066163902485 1.0000   
         C         C         1.0       0.6587480915244638  0.25973786246891645           0.6356646803559426 1.0000   
         C         C         1.0       0.6316762761444459  0.23511903820799895           0.6063559853419728 1.0000   
         H         H         1.0       0.6770790002992617  0.2642731832025054  0.6088832650636291 1.0000   
         H         H         1.0       0.6636607566006341  0.2556726272722078  0.6792466346479705 1.0000   
         H         H         1.0       0.6348568070869415  0.22984447122049934           0.5643971386998042 1.0000   
         H         H         1.0       0.6171208502643433  0.24105326282144587           0.6019875354812821 1.0000   
         C         C         1.0       0.7402417495568424  0.2242583876677749  0.7154149033982431 1.0000   
         C         C         1.0       0.7067872895387849  0.20788458113045052           0.7332959181421774 1.0000   
         H         H         1.0       0.7412606867449377  0.21157404763947715           0.680945614627579  1.0000   
         H         H         1.0       0.7484587831050837  0.24233971718183153           0.6926840143519069 1.0000   
         H         H         1.0       0.7000406757991177  0.22045136760605732           0.7151635993798348 1.0000   
         H         H         1.0       0.7048967402884811  0.21018742106258945           0.7773614556193613 1.0000   
         C         C         1.0       0.7288270606910385  0.30420110374477904           0.46563623785689445          1.0000   
         C         C         1.0       0.7081738584957983  0.27656693945777683           0.49881105527328296          1.0000   
         H         H         1.0       0.7468689828962112  0.3052232376716649  0.4417249546634379 1.0000   
         H         H         1.0       0.7426354744044935  0.3191796108238517  0.4955490023750479 1.0000   
         H         H         1.0       0.7230832428078439  0.2766591312401205  0.5287854992147984 1.0000   
         H         H         1.0       0.6939699121491298  0.2797990087952086  0.5211162169194209 1.0000   
         C         C         1.0       0.7744212942688615  0.30532457519658057           0.3479561557418951 1.0000   
         C         C         1.0       0.7709761394625246  0.30785130006405065           0.2870080216001414 1.0000   
         H         H         1.0       0.7542715705327997  0.2899587999652737  0.36407591735387873          1.0000   
         H         H         1.0       0.7820287012193488  0.32558202599713537           0.3641209297393833 1.0000   
         H         H         1.0       0.7940184664214933  0.31754761982176766           0.2673148400748649 1.0000   
         H         H         1.0       0.7685064759017954  0.32392554181025973           0.2821002082543735 1.0000   
         C         C         1.0       0.6114983292999409  0.20046200390839428           0.9861796946852198 1.0000   
         C         C         1.0       0.6267932784386108  0.19269794854533628           0.9462479607580514 1.0000   
         H         H         1.0       0.6148201614278385  0.2211854679657686  0.9741104856903856 1.0000   
         H         H         1.0       0.5862301539288997  0.18514524317613626           0.9843277319054942 1.0000   
         H         H         1.0       0.62962119750085    0.17780711091389756           0.9670218341103274 1.0000   
         H         H         1.0       0.6507081600209672  0.2129511850891215  0.9380854147632266 1.0000   
         C         C         1.0       0.6760153478998004  0.09007501028849595           0.4283598709946551 1.0000   
         C         C         1.0       0.6532669874130327  0.0628477983037663  0.462265318297567  1.0000   
         H         H         1.0       0.6993859552317956  0.10215696222925484           0.4452281381614207 1.0000   
         H         H         1.0       0.6801686691568485  0.08647674939562422           0.38810665577899   1.0000   
         H         H         1.0       0.6625628206699365  0.05041637206026061           0.45920735379305644          1.0000   
         H         H         1.0       0.6336227806142343  0.052781520638768065         0.4357856102452043 1.0000   
         C         C         1.0       0.5592087474358861  0.9262249240641839  0.953552772744243  1.0000   
         C         C         1.0       0.5432796116268529  0.9368742687389228  0.926655023586397  1.0000   
         H         H         1.0       0.5701089704314343  0.9379405192767318  0.9907789077263296 1.0000   
         H         H         1.0       0.543898397429033   0.9053918865748746  0.9698952286644266 1.0000   
         H         H         1.0       0.5185910212695538  0.9243701823689391  0.9352356309507335 1.0000   
         H         H         1.0       0.5420120136588168  0.9351773706988071  0.8826234359468775 1.0000   
         C         C         1.0       0.7173328618957098  0.15963373589145724           0.9616213789601645 1.0000   
         C         C         1.0       0.7249465360944686  0.16644432484760374           0.021827795639634218         1.0000   
         H         H         1.0       0.735851748675987   0.15837519224391333           0.9431857594936484 1.0000   
         H         H         1.0       0.7204844843693333  0.17803657344580812           0.9441639404165114 1.0000   
         H         H         1.0       0.7494754424354719  0.1847628595650992  0.02306032434360894          1.0000   
         H         H         1.0       0.7235270858153617  0.14891695318420295           0.04199927280127414          1.0000   
         C         C         1.0       0.4246604001503966  0.030375184803053568         0.7414219534833165 1.0000   
         C         C         1.0       0.43719430765796985           0.06008788229876805          0.7597286113121144 1.0000   
         H         H         1.0       0.4241028755498374  0.029557564480581888         0.6958437836285208 1.0000   
         H         H         1.0       0.400376872646851   0.016696951611176347         0.7521900726410695 1.0000   
         H         H         1.0       0.42514831557777677           0.0677438218886115 0.7399567915538486 1.0000   
         H         H         1.0       0.42930125747895076           0.057935809483103055         0.8023885533298061 1.0000   
         C         C         1.0       0.5582319443970438  0.8703434005610977  0.36306304842844633          1.0000   
         C         C         1.0       0.5536924064013543  0.8448173407061744  0.3902852711064168 1.0000   
         H         H         1.0       0.5380104332576622  0.8627033415274581  0.34105707702305954          1.0000   
         H         H         1.0       0.5746159501923647  0.8789114338003667  0.33369095897604717          1.0000   
         H         H         1.0       0.5365511355153431  0.8264878037791995  0.3664239754859692 1.0000   
         H         H         1.0       0.5429740210856289  0.8409615680095356  0.43003905323374036          1.0000   
         C         C         1.0       0.5143138684325183  0.9036990037368128  0.717514280047645  1.0000   
         C         C         1.0       0.4863429471137865  0.900390174914147   0.7402354523542148 1.0000   
         H         H         1.0       0.5080117113776627  0.8821191592599099  0.7152759478333297 1.0000   
         H         H         1.0       0.5323851571116367  0.9170678592842996  0.7478898809700458 1.0000   
         H         H         1.0       0.46810229479638027           0.890291362679342  0.7125269459045971 1.0000   
         H         H         1.0       0.480431820980143   0.8881274491715899  0.7783140414904136 1.0000   
         C         C         1.0       0.5974656375027797  0.0989351930058977  0.17718920964684157          1.0000   
         C         C         1.0       0.6148992204356684  0.09717493659632392           0.22393355269581697          1.0000   
         H         H         1.0       0.6075438907864478  0.12109593601489044           0.17045907042323635          1.0000   
         H         H         1.0       0.5748544746043334  0.09271061625299759           0.19107735557469746          1.0000   
         H         H         1.0       0.6315613246445837  0.1197424149498425  0.2339356575547046 1.0000   
         H         H         1.0       0.6287949538484052  0.09251871061681904           0.2076091999157007 1.0000   
         C         C         1.0       0.6622578007460737  0.007938918995431976         0.680455175436154  1.0000   
         C         C         1.0       0.6427639819341335  0.00368401562662668           0.7307821341533207 1.0000   
         H         H         1.0       0.6720629376834651  0.9967423902099677  0.6885684646458003 1.0000   
         H         H         1.0       0.6828936106787779  0.030970934978580278         0.6751405536829072 1.0000   
         H         H         1.0       0.6558596152532343  0.006374841176984392         0.7654004831168637 1.0000   
         H         H         1.0       0.6239546453969911  0.9823512485273431  0.7314824395930719 1.0000   
         C         C         1.0       0.5225378246660474  0.07575050524702975           0.5399075698839152 1.0000   
         C         C         1.0       0.5233232805908774  0.09604802607475849           0.5036023138387391 1.0000   
         H         H         1.0       0.5401343114833289  0.08736379522751303           0.5721171101527938 1.0000   
         H         H         1.0       0.5018824108155676  0.06422000207113343           0.557543965455997  1.0000   
         H         H         1.0       0.5160314946798237  0.10865416027302532           0.5233192564726765 1.0000   
         H         H         1.0       0.5054538201540739  0.08213861727500182           0.4734430455302871 1.0000   
         C         C         1.0       0.21211491680082684           0.012215760631956396         0.7065037272526001 1.0000   
         C         C         1.0       0.1790228737401871  0.9951236631482504  0.7246610563196227 1.0000   
         H         H         1.0       0.2237945696000565  0.02669077555124133           0.7394092651379095 1.0000   
         H         H         1.0       0.21629693147528073           0.023698257136739453         0.6708154518709718 1.0000   
         H         H         1.0       0.1755447031044784  0.009403025443824209         0.7409785640904224 1.0000   
         H         H         1.0       0.17568818068785808           0.982031524461773  0.7584146011821586 1.0000   
         C         C         1.0       0.41147235406464505           0.16227465382470627          0.5872136872584656 1.0000   
         C         C         1.0       0.40093620940948826           0.15457028770128023          0.528803853861396  1.0000   
         H         H         1.0       0.42301119986796926           0.15281665052291116          0.5963169062750144 1.0000   
         H         H         1.0       0.39155897072783635           0.15139418197068588          0.6138560133050112 1.0000   
         H         H         1.0       0.4211964783686285  0.16229364742396002           0.5042911860134021 1.0000   
         H         H         1.0       0.39252864698643586           0.16527592700667593          0.5149731497626517 1.0000   
         C         C         1.0       0.1812495445973229  0.07636492445769716           0.11315591408320791          1.0000   
         C         C         1.0       0.21012141313124688           0.09225453957580854          0.07684788396149322          1.0000   
         H         H         1.0       0.15980448397808897           0.06297056145883206          0.08867142913650539          1.0000   
         H         H         1.0       0.1776554881263609  0.09000831166443701           0.13864241881296394          1.0000   
         H         H         1.0       0.23023220429849622           0.09849702080066325          0.10107790247183401          1.0000   
         H         H         1.0       0.2127309142851733  0.1099065624347546  0.06169759012690901          1.0000   
         C         C         1.0       0.34213332346448344           0.17669323058695116          0.15170241389745004          1.0000   
         C         C         1.0       0.3354414127707624  0.16125757849481961           0.0973008981166168 1.0000   
         H         H         1.0       0.32693302348707853           0.16335837249704974          0.18438234172487558          1.0000   
         H         H         1.0       0.3369687561969694  0.19111471582568343           0.147858919804272  1.0000   
         H         H         1.0       0.35454970950259007           0.17660304784363665          0.06818406167893998          1.0000   
         H         H         1.0       0.3150284401266619  0.1581190483083614  0.08306036063737432          1.0000   
         C         C         1.0       0.2941546457601668  0.9999748320889389  0.8957755415537938 1.0000   
         C         C         1.0       0.30948102786493825           0.9851378432364393 0.8940866354773424 1.0000   
         H         H         1.0       0.27243910968827695           0.986876482154849  0.8781269156810354 1.0000   
         H         H         1.0       0.3041099805966886  0.017306869155769178         0.8639101239447998 1.0000   
         H         H         1.0       0.3323566692877837  0.9994091973736324  0.9086448465128253 1.0000   
         H         H         1.0       0.2962695877679026  0.9686360866791266  0.9231888029974865 1.0000   
         C         C         1.0       0.19788686626213153           0.033953575359383814         0.475914468959448  1.0000   
         C         C         1.0       0.18971804784752233           0.01148387669871842          0.5176807202402723 1.0000   
         H         H         1.0       0.18062293317363617           0.03776709419692814          0.4799103883300299 1.0000   
         H         H         1.0       0.22141305865317415           0.05372096351093569          0.48466223969012884          1.0000   
         H         H         1.0       0.16967796762154533           0.9906438419944977 0.5066269878465728 1.0000   
         H         H         1.0       0.18355789132321923           0.016929577046844946         0.5557154418622506 1.0000   
         C         C         1.0       0.36222780428177814           0.814377538919389  0.7848876850027102 1.0000   
         C         C         1.0       0.3777525825299671  0.8141496646537925  0.8363536416816114 1.0000   
         H         H         1.0       0.34327428105023367           0.7927274992143669 0.7725865887746747 1.0000   
         H         H         1.0       0.3777402888755655  0.8228449450612069  0.7508623509026839 1.0000   
         H         H         1.0       0.3844006572982343  0.7996923821210555  0.8283908361139973 1.0000   
         H         H         1.0       0.39963374802148327           0.8340537268081105 0.8429337371641231 1.0000   
         C         C         1.0       0.41827422565092703           0.8830169280207779 0.9508727416959075 1.0000   
         C         C         1.0       0.4111942035823127  0.87975892388586    0.013838542936501774         1.0000   
         H         H         1.0       0.3965794144168928  0.8674763091819133  0.9272403039985115 1.0000   
         H         H         1.0       0.4313257225972407  0.875823024754279   0.9380913490850772 1.0000   
         H         H         1.0       0.403750553845819   0.8590565323354244  0.028656801785273966         1.0000   
         H         H         1.0       0.4318320463446893  0.8934750481318077  0.03507653838070568          1.0000   
         C         C         1.0       0.3890169324796479  0.028457065232243117         0.17511054648196178          1.0000   
         C         C         1.0       0.40013308548256554           0.022453175108988477         0.12142522842588832          1.0000   
         H         H         1.0       0.38425096780346746           0.013486581648931795         0.207326771369454  1.0000   
         H         H         1.0       0.40836000375853104           0.04765672268986365          0.18968797702843965          1.0000   
         H         H         1.0       0.41789763047718426           0.020524868189429668         0.1300899174831791 1.0000   
         H         H         1.0       0.406513335551349   0.04016790232626355           0.09648861262345454          1.0000   
         C         C         1.0       0.20526992283207351           0.8241935373607081 0.6792966327131731 1.0000   
         C         C         1.0       0.2095468794070544  0.8385808427516932  0.6270546525545102 1.0000   
         H         H         1.0       0.19535363197775182           0.8015900525629349 0.6767442904023134 1.0000   
         H         H         1.0       0.18806059741780282           0.8253390385690005 0.697714016976808  1.0000   
         H         H         1.0       0.2211812379309578  0.8341283170413751  0.5967720917985728 1.0000   
         H         H         1.0       0.18823800781740826           0.8299777666139003 0.6074773503092358 1.0000   
         C         C         1.0       0.18923508396004152           0.7349287578220643 0.38285045297224796          1.0000   
         C         C         1.0       0.19319580256957333           0.7373023598017677 0.44573092614158644          1.0000   
         H         H         1.0       0.17301697033815858           0.712877684911652  0.3736712704659294 1.0000   
         H         H         1.0       0.21144511878846825           0.7390044213724574 0.3697079234504098 1.0000   
         H         H         1.0       0.17233916667309515           0.728134777205294  0.4670795892138515 1.0000   
         H         H         1.0       0.20811502943684185           0.7595007823082144 0.4535677577886767 1.0000   
         C         C         1.0       0.40481367890230074           0.9069211883181262 0.2680877737816231 1.0000   
         C         C         1.0       0.4340191381740424  0.931215529264998   0.24031790087602725          1.0000   
         H         H         1.0       0.409620575479824   0.8956355336123212  0.29403546022476285          1.0000   
         H         H         1.0       0.3907390155517534  0.8931834767123878  0.23319531623721484          1.0000   
         H         H         1.0       0.4424097972224693  0.9210350970722376  0.21963707239023741          1.0000   
         H         H         1.0       0.4291442910542104  0.9420190000125067  0.2093720496677395 1.0000   
         C         C         1.0       0.35935537252330474           0.9711033455007313 0.5791993033669253 1.0000   
         C         C         1.0       0.3828007687934308  0.9688316230867328  0.6083931778705078 1.0000   
         H         H         1.0       0.37038490506619365           0.9927807974122268 0.5772202267100672 1.0000   
         H         H         1.0       0.34077661205570825           0.9641352141965115 0.6047685561230093 1.0000   
         H         H         1.0       0.39136894981482545           0.9624321553544034 0.577661572887371  1.0000   
         H         H         1.0       0.4031369534904613  0.9887246847612687  0.6202592419350186 1.0000   
         C         C         1.0       0.20477576095091507           0.8381509405016634 0.04329526493689473          1.0000   
         C         C         1.0       0.18446003544225617           0.8443316877801298 0.07009321095208222          1.0000   
         H         H         1.0       0.1977653320756947  0.8348810176632956  0.0017175301380820687        1.0000   
         H         H         1.0       0.20009802827818196           0.818742572414672  0.055282767444053034         1.0000   
         H         H         1.0       0.1615433913773185  0.8318172959517898  0.05635350774524973          1.0000   
         H         H         1.0       0.19467047804828308           0.8658624717096624 0.05852834527664719          1.0000   
         C         C         1.0       0.28371653199407443           0.9880491047127692 0.26371999966603593          1.0000   
         C         C         1.0       0.3113341092959703  0.018688295867530513         0.27434803969775956          1.0000   
         H         H         1.0       0.2784174906347908  0.9854052450759406  0.22122327767681887          1.0000   
         H         H         1.0       0.26273468448101944           0.9828882657175512 0.28394709540885293          1.0000   
         H         H         1.0       0.31058481816820427           0.03281340136687749          0.24676321983674177          1.0000   
         H         H         1.0       0.33198479727220026           0.02183165216191485          0.25938056821362343          1.0000   
         C         C         1.0       0.12131575906067989           0.8810654019845651 0.2807796253354787 1.0000   
         C         C         1.0       0.12130994268512915           0.8698911488986897 0.33549963562013035          1.0000   
         H         H         1.0       0.09764406346641348           0.8724088604370298 0.2713203093534559 1.0000   
         H         H         1.0       0.12845248388933506           0.8728352703456147 0.24538111109501995          1.0000   
         H         H         1.0       0.09847965486285137           0.8509123936376094 0.3423173225928384 1.0000   
         H         H         1.0       0.12794511169067738           0.8844588159555957 0.3673771518328031 1.0000

