data_0
_chemical_formula_sum                   'C1200 H960'
_cell_length_a                          33.79684856924027
_cell_length_b                          33.20477087298926
_cell_length_c                          37.65448629597072
_cell_angle_alpha                       89.92165155801526
_cell_angle_beta                        89.6689854346691
_cell_angle_gamma                       112.04089438959942
_space_group_name_H-M_alt               'P 1'
_space_group_IT_number                  1
loop_
  _space_group_symop_operation_xyz
         'x, y, z' 
loop_
  _atom_site_type_symbol
  _atom_site_label
  _atom_site_symmetry_multiplicity
  _atom_site_fract_x
  _atom_site_fract_y
  _atom_site_fract_z
  _atom_site_occupancy
         C         C         1.0       0.7338141777148602  0.4482981328570147  0.0021951145057577115        1.0000   
         C         C         1.0       0.7202352207359458  0.4260297967665374  0.033129130666587736         1.0000   
         C         C         1.0       0.6829151361209527  0.42511609698810576           0.04757102954130765          1.0000   
         C         C         1.0       0.658803426003135   0.4470773357079874  0.0320207498113112 1.0000   
         C         C         1.0       0.6736538184977301  0.4684911810197866  0.9988100880133037 1.0000   
         C         C         1.0       0.7115365795377344  0.4699160634763584  0.9858379555798498 1.0000   
         H         H         1.0       0.7408834983185512  0.4117907161497565  0.045042778200458766         1.0000   
         H         H         1.0       0.6743384441763942  0.40863437950784604           0.07221575756944931          1.0000   
         H         H         1.0       0.6576034913420076  0.4876039998538949  0.9866776436112591 1.0000   
         H         H         1.0       0.7208430143323998  0.4895238492549467  0.9623997881755972 1.0000   
         C         C         1.0       0.6512447489042208  0.5342217722046831  0.04790716365151737          1.0000   
         C         C         1.0       0.6145066082793155  0.4969877372795514  0.050032327298796364         1.0000   
         C         C         1.0       0.5765739919631835  0.5021780844343026  0.05070744580463282          1.0000   
         C         C         1.0       0.5742275665445193  0.5424254671292581  0.04631431275595954          1.0000   
         C         C         1.0       0.6102415244687405  0.5794329900999217  0.04275309214949874          1.0000   
         C         C         1.0       0.6499014032562388  0.5750603615267307  0.04376224424631636          1.0000   
         C         C         1.0       0.6185906108915559  0.4504529147122528  0.05235350909825964          1.0000   
         C         C         1.0       0.6171298073400325  0.44498479715805384           0.094119099512326  1.0000   
         C         C         1.0       0.5802065109675271  0.43160238877042467           0.11467826850526786          1.0000   
         C         C         1.0       0.5804817086839869  0.4305939552751615  0.1515900497434215 1.0000   
         C         C         1.0       0.6181272418738991  0.4485855730022445  0.16848613242967936          1.0000   
         C         C         1.0       0.6560770810249434  0.4659839039783024  0.14817367015258132          1.0000   
         C         C         1.0       0.6555057756022142  0.4609767608958691  0.11212451582749705          1.0000   
         C         C         1.0       0.5598489600215008  0.4159793090787965  0.005076344623748508         1.0000   
         C         C         1.0       0.5250177212239597  0.3841789948861851  0.9922002459167464 1.0000   
         C         C         1.0       0.5145518209754297  0.34208974867300135           0.004768683030927479         1.0000   
         C         C         1.0       0.5402126918030905  0.33556311151813223           0.030915797830084912         1.0000   
         C         C         1.0       0.5738254819049351  0.3692583657354635  0.046205956584209895         1.0000   
         C         C         1.0       0.5821186548017647  0.40999762436625264           0.03409754811735244          1.0000   
         C         C         1.0       0.4684689852140743  0.3082106790003846  0.9961224221200515 1.0000   
         C         C         1.0       0.395076905194003   0.3274880530250511  0.08499875192802908          1.0000   
         C         C         1.0       0.40762793082742327           0.3566556986116143 0.057950093309544704         1.0000   
         C         C         1.0       0.43072878904260364           0.35127220134227566          0.031071963847675077         1.0000   
         C         C         1.0       0.4447266117460811  0.31619272211648086           0.029366317778989126         1.0000   
         C         C         1.0       0.43697991750007936           0.29046515938926754          0.0595107924885514 1.0000   
         C         C         1.0       0.4115219591492413  0.29503521188231197           0.08538889516093273          1.0000   
         C         C         1.0       0.4707891268537154  0.2600746406133301  0.9898309893588019 1.0000   
         C         C         1.0       0.5035408390290768  0.25535155712055585           0.9701342337262889 1.0000   
         C         C         1.0       0.4989471351996381  0.21563987496566572           0.9574981753109083 1.0000   
         C         C         1.0       0.46453173469987774           0.17884368312899906          0.968807754544198  1.0000   
         C         C         1.0       0.43400091401252106           0.1830800922699838 0.9914482524731467 1.0000   
         C         C         1.0       0.435566053988625   0.2235628343207652  0.9977188250530155 1.0000   
         C         C         1.0       0.4010347527134526  0.3038565645271927  0.9625484229397653 1.0000   
         C         C         1.0       0.3839337014427199  0.3169206016211154  0.9344408580936029 1.0000   
         C         C         1.0       0.40527062824567933           0.3309651989907089 0.9032155709241604 1.0000   
         C         C         1.0       0.4443928501865378  0.3316029425092329  0.9003242389439464 1.0000   
         C         C         1.0       0.462885923380468   0.3192918941986715  0.9275403578829248 1.0000   
         C         C         1.0       0.44278278889789835           0.30918789314538764          0.9605079359562253 1.0000   
         H         H         1.0       0.682382833103765   0.5316899095247326  0.05168925342938446          1.0000   
         H         H         1.0       0.5507805460776508  0.476384607833293   0.056499574357906646         1.0000   
         H         H         1.0       0.5433903661650541  0.54514069813754    0.04345819547576624          1.0000   
         H         H         1.0       0.6815231190097024  0.6028715551200194  0.040615228589438335         1.0000   
         H         H         1.0       0.5486985172188961  0.41844604063205304           0.10367896015881173          1.0000   
         H         H         1.0       0.5529147775303056  0.41902339852639103           0.16825676633401598          1.0000   
         H         H         1.0       0.6864380632994938  0.4811098827571873  0.16053464298289288          1.0000   
         H         H         1.0       0.6849411640197244  0.47332568709747197           0.09844055952985342          1.0000   
         H         H         1.0       0.5692710778691741  0.4478926347295733  0.9950216535013783 1.0000   
         H         H         1.0       0.5075186369844495  0.3947111737864779  0.9720694093213921 1.0000   
         H         H         1.0       0.5301940837182083  0.3030711924607495  0.04286564079339583          1.0000   
         H         H         1.0       0.5912182545362566  0.359624217678486   0.06512530088239687          1.0000   
         H         H         1.0       0.39702004443178673           0.3813449395201229 0.056522590784649385         1.0000   
         H         H         1.0       0.43782705394537574           0.3741602353686411 0.009905584050274863         1.0000   
         H         H         1.0       0.451171504644074   0.26647017519876975           0.06030239348527089          1.0000   
         H         H         1.0       0.4079847594223597  0.2732386397416988  0.10820359525250689          1.0000   
         H         H         1.0       0.5301921215097803  0.28316200786248835           0.9617530180463716 1.0000   
         H         H         1.0       0.5204933095621223  0.2115420595268501  0.9382026199431152 1.0000   
         H         H         1.0       0.40631307011828305           0.15302029460678804          0.998207298821665  1.0000   
         H         H         1.0       0.4086625287920193  0.22730306639292566           0.010085397924929573         1.0000   
         H         H         1.0       0.38120301392942146           0.28885794206634285          0.9856592658111698 1.0000   
         H         H         1.0       0.35142085017032443           0.31597755853833553          0.9392002495355309 1.0000   
         H         H         1.0       0.45790799075725974           0.3397159343166991 0.8749838414294183 1.0000   
         H         H         1.0       0.4948967364696611  0.3209688462556518  0.924895958180233  1.0000   
         C         C         1.0       0.4554263326774836  0.20169375214670746           0.8093619881755919 1.0000   
         C         C         1.0       0.4501269745737797  0.23456779121225133           0.8277536063723335 1.0000   
         C         C         1.0       0.48119124673803904           0.27555144839603984          0.8248362343436801 1.0000   
         C         C         1.0       0.5177841070785131  0.2854265939686345  0.8042446181001356 1.0000   
         C         C         1.0       0.5221482142075131  0.2497387461808882  0.7880899199382146 1.0000   
         C         C         1.0       0.4909177304985459  0.2084564020315797  0.7893734756715713 1.0000   
         H         H         1.0       0.4247879317533378  0.22861351042297617           0.8464913656906635 1.0000   
         H         H         1.0       0.4741726579994494  0.2994370495177197  0.8405801899758596 1.0000   
         H         H         1.0       0.552363149323682   0.25274478824618385           0.7760399648955126 1.0000   
         H         H         1.0       0.4962188622329817  0.17992749021697366           0.7785046992704784 1.0000   
         C         C         1.0       0.620057819318561   0.33219923273985286           0.8003995783798962 1.0000   
         C         C         1.0       0.592635172743373   0.3486921495566453  0.7845695901366867 1.0000   
         C         C         1.0       0.610606459858054   0.3813760282475525  0.7603380604797739 1.0000   
         C         C         1.0       0.6530914510226399  0.3962120073522496  0.7513925269020997 1.0000   
         C         C         1.0       0.6796920560620335  0.37945051696972726           0.765934361733786  1.0000   
         C         C         1.0       0.662953058994486   0.3467592204559718  0.7905352125342764 1.0000   
         C         C         1.0       0.5440325739045749  0.335833065227909   0.7959820198953957 1.0000   
         C         C         1.0       0.5527148853606465  0.368633318136482   0.8276270510564613 1.0000   
         C         C         1.0       0.5593723888802319  0.4117961560405982  0.821215807867408  1.0000   
         C         C         1.0       0.5703312925848312  0.44255810703629606           0.8482547655393746 1.0000   
         C         C         1.0       0.5720922760081387  0.42950479830856036           0.882356234034963  1.0000   
         C         C         1.0       0.5647124993220637  0.38722093129055224           0.890241916550452  1.0000   
         C         C         1.0       0.5577386428438085  0.3583312645104042  0.8625557233131764 1.0000   
         C         C         1.0       0.5105123268369935  0.32754978304766724           0.7316654967079094 1.0000   
         C         C         1.0       0.48014125558618126           0.33009738732581195          0.7065628114158448 1.0000   
         C         C         1.0       0.4504538543003619  0.3467833061210887  0.7166275541834953 1.0000   
         C         C         1.0       0.44876340348150545           0.3576639836833213 0.7516301858840997 1.0000   
         C         C         1.0       0.4779037314022397  0.3529723864741506  0.7753257569764135 1.0000   
         C         C         1.0       0.5108726457164957  0.3406511796471213  0.7659875170688275 1.0000   
         C         C         1.0       0.4166176998989087  0.3570822373369021  0.6911344209993514 1.0000   
         C         C         1.0       0.48775791263793544           0.4966516180775839 0.6872904010869849 1.0000   
         C         C         1.0       0.5030574370656307  0.4685182699247015  0.6704115132766616 1.0000   
         C         C         1.0       0.47710672807829463           0.42622862555829494          0.6689614806454574 1.0000   
         C         C         1.0       0.44032970628004875           0.40909867551000756          0.6904331045638115 1.0000   
         C         C         1.0       0.4276910441268771  0.43814719043571665           0.7091184262158183 1.0000   
         C         C         1.0       0.44786279858439987           0.4824045159794004 0.7034040178552082 1.0000   
         C         C         1.0       0.3693274645942549  0.33700781550607517           0.7070249219932017 1.0000   
         C         C         1.0       0.35688571435692906           0.29839874779145326          0.7272439553832196 1.0000   
         C         C         1.0       0.31804458320077994           0.28330615534668346          0.7435893659089698 1.0000   
         C         C         1.0       0.29070755084674466           0.30455983538118386          0.7400773562989875 1.0000   
         C         C         1.0       0.2998578277604212  0.34072388476044835           0.7187694894529766 1.0000   
         C         C         1.0       0.3396034196278773  0.3558767096366706  0.7014821112896188 1.0000   
         C         C         1.0       0.409068844019566   0.36107672433972215           0.622824702454814  1.0000   
         C         C         1.0       0.4021079763041317  0.3412262800099862  0.5903403371242096 1.0000   
         C         C         1.0       0.38912859862577315           0.2956609369646624 0.5874125907741653 1.0000   
         C         C         1.0       0.3849670939934031  0.271411962730302   0.6177953080687127 1.0000   
         C         C         1.0       0.394818135756493   0.29195093372677605           0.6500199929421437 1.0000   
         C         C         1.0       0.4085885475463065  0.33739491555716977           0.6526210791314585 1.0000   
         H         H         1.0       0.6078191175752184  0.3071765737737449  0.8218832633705991 1.0000   
         H         H         1.0       0.5931604695429754  0.39842171075065275           0.7492026279517697 1.0000   
         H         H         1.0       0.6651541128049925  0.42188701263544004           0.7329181026241632 1.0000   
         H         H         1.0       0.681875972269421   0.3312068624074176  0.8018843891291567 1.0000   
         H         H         1.0       0.5510646217114915  0.4211676015653402  0.7952055690485251 1.0000   
         H         H         1.0       0.5772737525354823  0.4765547502633773  0.8404483278338641 1.0000   
         H         H         1.0       0.5691591811655177  0.3793013724752043  0.9169217406320139 1.0000   
         H         H         1.0       0.5532689116647276  0.3262754077287619  0.8701668723240187 1.0000   
         H         H         1.0       0.5338189146789798  0.3169475956162235  0.7221177573404308 1.0000   
         H         H         1.0       0.47925090978488505           0.3171237194367556 0.6797094021549714 1.0000   
         H         H         1.0       0.4245551975638439  0.36367407200796553           0.7651562900767299 1.0000   
         H         H         1.0       0.47397607652031254           0.3578983364269872 0.8024729111583503 1.0000   
         H         H         1.0       0.5316420553911033  0.48327285358427813           0.6537651179552737 1.0000   
         H         H         1.0       0.4898624649824234  0.40545856105169015           0.655765137624526  1.0000   
         H         H         1.0       0.39949707155320097           0.4264610813051189 0.7271473465231434 1.0000   
         H         H         1.0       0.4353269983070808  0.5033524298996149  0.7169371317436324 1.0000   
         H         H         1.0       0.3730832005416297  0.27688232018653103           0.7250291297254741 1.0000   
         H         H         1.0       0.3034407986079964  0.25080908749282843           0.7564113555126362 1.0000   
         H         H         1.0       0.2790526435324413  0.3592269161924969  0.7149161280288565 1.0000   
         H         H         1.0       0.3461931473883231  0.3826531323988797  0.6851673318176844 1.0000   
         H         H         1.0       0.4146078226526954  0.39565235440146773           0.6235742791660465 1.0000   
         H         H         1.0       0.40128825222886166           0.36019672088947885          0.5665901510147011 1.0000   
         H         H         1.0       0.37723304255635265           0.23745175752460398          0.6164148307454578 1.0000   
         H         H         1.0       0.39064380417078776           0.27263891896017717          0.672606042540114  1.0000   
         C         C         1.0       0.18512222451973237           0.20772969060582397          0.7651342196115601 1.0000   
         C         C         1.0       0.15098064002954173           0.21644448396378657          0.7791028859215129 1.0000   
         C         C         1.0       0.12118798429384149           0.1857760550536594 0.8007755776774411 1.0000   
         C         C         1.0       0.1264971307495905  0.1473520511488873  0.8091932883114319 1.0000   
         C         C         1.0       0.16160450570250556           0.1413719489968408 0.7963631715478364 1.0000   
         C         C         1.0       0.1895791711193711  0.16868928830385255           0.7719814505757292 1.0000   
         H         H         1.0       0.14676769873904774           0.2455564879255492 0.7716666863841071 1.0000   
         H         H         1.0       0.09932289526410198           0.19539649275127527          0.8136059028237936 1.0000   
         H         H         1.0       0.15210962662317837           0.6042959792435371 0.8159276190791556 1.0000   
         H         H         1.0       0.21753440925469844           0.16317223418590143          0.7627204734291823 1.0000   
         C         C         1.0       0.07251652252252803           0.5283199443982642 0.8260590487077798 1.0000   
         C         C         1.0       0.07167716769868605           0.556356372165254  0.8542185426117419 1.0000   
         C         C         1.0       0.5300446101988563  0.5730736005772332  0.90427054894523   1.0000   
         C         C         1.0       0.5349221996142333  0.5395360801532402  0.9225151802739844 1.0000   
         C         C         1.0       0.5234127215690318  0.5000044997884532  0.9064093238783074 1.0000   
         C         C         1.0       0.07076894310282145           0.4875009774375571 0.8347400786477566 1.0000   
         C         C         1.0       0.07575657025173727           0.604112586934204  0.8465751388703395 1.0000   
         C         C         1.0       0.5562920351721639  0.1332823101232934  0.8436993490223437 1.0000   
         C         C         1.0       0.5463528331373719  0.16103295516697108           0.8658474943185044 1.0000   
         C         C         1.0       0.5048403289027926  0.1601665818478414  0.8679644846942977 1.0000   
         C         C         1.0       0.47311088195515205           0.1294204475747824 0.8492661092817204 1.0000   
         C         C         1.0       0.4835595625659201  0.10225300024089388           0.826291958981946  1.0000   
         C         C         1.0       0.5231682002807714  0.10469306828158718           0.8227414806054584 1.0000   
         C         C         1.0       0.1326783771528163  0.6249722571175889  0.8960058701772123 1.0000   
         C         C         1.0       0.16484572595184172           0.6545372447864193 0.9139643756661595 1.0000   
         C         C         1.0       0.18354388657945334           0.17265705328297573          0.9254659715844434 1.0000   
         C         C         1.0       0.15159120327568193           0.1868921073752247 0.9169854750268677 1.0000   
         C         C         1.0       0.12217459155712548           0.16723373716798087          0.8936263969399246 1.0000   
         C         C         1.0       0.12583612224172783           0.13416375123518806          0.8719635571220015 1.0000   
         C         C         1.0       0.22648338817387834           0.20554135519717798          0.9448126455096235 1.0000   
         C         C         1.0       0.6511207000406954  0.6858587140312803  0.0067335057348762994        1.0000   
         C         C         1.0       0.6381542920052851  0.7201123641796445  0.9982266332532942 1.0000   
         C         C         1.0       0.2636363879819583  0.7067009842712328  0.9217317067287765 1.0000   
         C         C         1.0       0.6682433879515643  0.7241980695759832  0.9419494865299294 1.0000   
         C         C         1.0       0.6775253022787721  0.6880239536634987  0.9494628057571113 1.0000   
         C         C         1.0       0.667720786912258   0.6681237749551767  0.9813331893776079 1.0000   
         C         C         1.0       0.7430449526900099  0.29049634978061145           0.9419464541071215 1.0000   
         C         C         1.0       0.7148203619829891  0.30882533918334215           0.9282603275994463 1.0000   
         C         C         1.0       0.7238995494217674  0.35287784905559494           0.9314441065344985 1.0000   
         C         C         1.0       0.7595858933964486  0.37824907540074865           0.9503446375466086 1.0000   
         C         C         1.0       0.7866016441794375  0.36097045764011226           0.9634880054620268 1.0000   
         C         C         1.0       0.2616104761005644  0.2673694480905292  0.9896025035354803 1.0000   
         C         C         1.0       0.2573605545910958  0.2737866673282634  0.9047162640589027 1.0000   
         C         C         1.0       0.28927374158825503           0.3016941097106024 0.8832481631512505 1.0000   
         C         C         1.0       0.316272463429122   0.2857964725053594  0.8660211713062346 1.0000   
         C         C         1.0       0.30804327968607287           0.2422639806665593 0.8685563540146847 1.0000   
         C         C         1.0       0.282140474528208   0.21722204611940607           0.8930146259299032 1.0000   
         C         C         1.0       0.25492556915701114           0.23157932185750846          0.9112674495063346 1.0000   
         H         H         1.0       0.07809443589757534           0.5411909895520687 0.798513763695744  1.0000   
         H         H         1.0       0.5396361712925627  0.6029284466113066  0.9179227123991198 1.0000   
         H         H         1.0       0.5500131659206211  0.547624686902251   0.9483516613882571 1.0000   
         H         H         1.0       0.0717862599053522  0.46670710980550517           0.8121276271782558 1.0000   
         H         H         1.0       0.5712101488673871  0.18490643106070154           0.879349431551501  1.0000   
         H         H         1.0       0.49763467678587164           0.18599583634993808          0.8815015000702167 1.0000   
         H         H         1.0       0.46185339677471987           0.08156611843636608          0.8069072643428565 1.0000   
         H         H         1.0       0.5293718158172853  0.0844931626653238  0.8021034483739765 1.0000   
         H         H         1.0       0.13533095913824186           0.5940743462019799 0.8941103714753857 1.0000   
         H         H         1.0       0.18604465704929102           0.64315346082661   0.9278181081333964 1.0000   
         H         H         1.0       0.1518027299336673  0.21727261725481314           0.9255341479598304 1.0000   
         H         H         1.0       0.09594551499828448           0.17903447863124552          0.8907126332712809 1.0000   
         H         H         1.0       0.625083270786256   0.7355466373686033  0.017877027657484  1.0000   
         H         H         1.0       0.25844954345888543           0.711667874041247  0.8959445730844482 1.0000   
         H         H         1.0       0.693344123362292   0.675929214446019   0.9287495437840065 1.0000   
         H         H         1.0       0.6746763750351741  0.6390873967918718  0.9866733293581236 1.0000   
         H         H         1.0       0.6829283366390299  0.2894180304428733  0.9170518398283776 1.0000   
         H         H         1.0       0.702829336135981   0.367321369565449   0.9184908489676475 1.0000   
         H         H         1.0       0.8137709081585643  0.37946626121331684           0.9781711705433905 1.0000   
         H         H         1.0       0.2913598763730388  0.26915023298409224           0.9792675914722784 1.0000   
         H         H         1.0       0.23316656820482357           0.2842237284800698 0.9175908965427003 1.0000   
         H         H         1.0       0.29496709162344986           0.3361912609477231 0.8820917758825886 1.0000   
         H         H         1.0       0.3271960092744189  0.22726019678576112           0.8554026922954656 1.0000   
         H         H         1.0       0.2049678230455365  0.751157301359737   0.8657815638755674 1.0000   
         C         C         1.0       0.47869042367126047           0.546367467915065  0.6175332621609033 1.0000   
         C         C         1.0       0.442832830231771   0.5540878042010761  0.6268680506783619 1.0000   
         C         C         1.0       0.4105478764732783  0.5500800514980491  0.606203394556568  1.0000   
         C         C         1.0       0.41542141914030645           0.5393391883731149 0.5706826670353212 1.0000   
         C         C         1.0       0.45090441107288953           0.5292476501787486 0.5585191598065559 1.0000   
         C         C         1.0       0.482810649347493   0.5349800687645245  0.5827040866204438 1.0000   
         H         H         1.0       0.44093749484164085           0.5656489114503939 0.6523049495272256 1.0000   
         H         H         1.0       0.3795043918636242  0.553186888394987   0.6147527619103096 1.0000   
         H         H         1.0       0.4531329250792816  0.5231129351361209  0.5317945228542937 1.0000   
         H         H         1.0       0.5067512774891985  0.521206080672159   0.5752331280052582 1.0000   
         C         C         1.0       0.43404726113360753           0.5833135466382411 0.49424963779278164          1.0000   
         C         C         1.0       0.3949364737247008  0.5506196390538894  0.5024070162229517 1.0000   
         C         C         1.0       0.3663442296444206  0.536801481865917   0.4754623877007423 1.0000   
         C         C         1.0       0.3777279105167104  0.5506901696509336  0.4411823559861277 1.0000   
         C         C         1.0       0.4156680925331075  0.5871895235587089  0.434604156087646  1.0000   
         C         C         1.0       0.4455988848681768  0.6005468690637421  0.4623414021477125 1.0000   
         C         C         1.0       0.3791520403258214  0.5373861248937031  0.5422993362795879 1.0000   
         C         C         1.0       0.3579926435218388  0.5720686846561627  0.5481163219658005 1.0000   
         C         C         1.0       0.3150909458523788  0.5613710612580701  0.5390374339543601 1.0000   
         C         C         1.0       0.2988272889658251  0.5915158131073681  0.5408299196046585 1.0000   
         C         C         1.0       0.32374397840986463           0.6344685488530383 0.5504905448665862 1.0000   
         C         C         1.0       0.3655299865608642  0.6466668256532175  0.559911239298158  1.0000   
         C         C         1.0       0.382148125473538   0.6157897071908106  0.5569000978860063 1.0000   
         C         C         1.0       0.35034723362603093           0.451690650075278  0.5323920764821994 1.0000   
         C         C         1.0       0.3211793084765593  0.4112248926589018  0.5398336996767372 1.0000   
         C         C         1.0       0.2868245440623935  0.40277625778037773           0.5637700361167972 1.0000   
         C         C         1.0       0.2878491908517709  0.4382425476949383  0.5837506721788079 1.0000   
         C         C         1.0       0.3191843831122467  0.4787042085943909  0.5784377578340217 1.0000   
         C         C         1.0       0.34851529732518416           0.486714160529596  0.5500037764465153 1.0000   
         C         C         1.0       0.241661898340647   0.36455052036492136           0.5613556509978548 1.0000   
         C         C         1.0       0.20373201043206368           0.4285368668380476 0.47210062081143067          1.0000   
         C         C         1.0       0.22470589769052157           0.4007800080551534 0.46618844655504244          1.0000   
         C         C         1.0       0.2353352122479009  0.3807543712975871  0.4929092095290063 1.0000   
         C         C         1.0       0.22437228802208278           0.38471783155073924          0.5280051888359395 1.0000   
         C         C         1.0       0.20039476941989937           0.41094840842401964          0.5344302188041686 1.0000   
         C         C         1.0       0.18598293779813427           0.4291968633410788 0.5057186549115854 1.0000   
         C         C         1.0       0.21240854513629828           0.34858100896537614          0.5946577087960159 1.0000   
         C         C         1.0       0.22971378613689755           0.35309328894639075          0.6290948583312991 1.0000   
         C         C         1.0       0.20562777559673195           0.33994166119521363          0.6589292512552704 1.0000   
         C         C         1.0       0.1618675243151765  0.32134120382501535           0.6555139622389748 1.0000   
         C         C         1.0       0.1427426235776569  0.31729543709531033           0.6218818300164687 1.0000   
         C         C         1.0       0.1676200564605005  0.3322817483030575  0.5924033638557235 1.0000   
         C         C         1.0       0.21660176502064232           0.28932377000044107          0.5299651823617518 1.0000   
         C         C         1.0       0.21866006489541284           0.2494151968674873 0.5262365023048327 1.0000   
         C         C         1.0       0.24587229904031757           0.23585541141654603          0.5456954272189326 1.0000   
         C         C         1.0       0.27776116423701186           0.267492811963603  0.5647887076408102 1.0000   
         C         C         1.0       0.2786153548138179  0.30967918108677706           0.5679836291451399 1.0000   
         C         C         1.0       0.24783214803178114           0.32125142074958596          0.5508915632140725 1.0000   
         H         H         1.0       0.4565465088238406  0.5999553040768832  0.5155467049540471 1.0000   
         H         H         1.0       0.3385051983393049  0.5062001039848658  0.47929177213323243          1.0000   
         H         H         1.0       0.35622901487486885           0.5365289819730831 0.419480396892831  1.0000   
         H         H         1.0       0.4728085030087754  0.6296053670091362  0.45920902839856664          1.0000   
         H         H         1.0       0.293735866453884   0.5290071453543828  0.5301900258727018 1.0000   
         H         H         1.0       0.2669112324622819  0.5850717895368058  0.5299521597584553 1.0000   
         H         H         1.0       0.38478988643217205           0.6802347054018625 0.5654789827640448 1.0000   
         H         H         1.0       0.41505566344239814           0.6258198436622993 0.5631032252995247 1.0000   
         H         H         1.0       0.3700875909895429  0.4572908428942707  0.5084044615082415 1.0000   
         H         H         1.0       0.32131922356084996           0.38374811896568656          0.5232275448751953 1.0000   
         H         H         1.0       0.2605712201516015  0.4328852580185485  0.600595923365468  1.0000   
         H         H         1.0       0.31820515771895325           0.50453906147677   0.5942195038468325 1.0000   
         H         H         1.0       0.23452321625880237           0.39289022103205584          0.4396084214496317 1.0000   
         H         H         1.0       0.2498824700808506  0.36014361779076404           0.48607829787013834          1.0000   
         H         H         1.0       0.18473841699558466           0.4095246415073007 0.5606214432286355 1.0000   
         H         H         1.0       0.16358231009683255           0.4471258974350426 0.5121756444837424 1.0000   
         H         H         1.0       0.2646831417409226  0.364887913235278   0.6331572953632815 1.0000   
         H         H         1.0       0.21813671003469196           0.34466249676819627          0.68516676214529   1.0000   
         H         H         1.0       0.6511822271392814  0.35116886935690467           0.6864750066639121 1.0000   
         H         H         1.0       0.15426449421310456           0.32987970193283206          0.566024217232167  1.0000   
         H         H         1.0       0.19056726252965003           0.29576176141628097          0.5159944223210996 1.0000   
         H         H         1.0       0.19623050401802575           0.22910182364909745          0.5059799443255181 1.0000   
         H         H         1.0       0.2999496261780698  0.2587113591033162  0.5793542632737554 1.0000   
         H         H         1.0       0.30351254075759737           0.3347593227122715 0.5834852519909177 1.0000   
         C         C         1.0       0.3730251679795546  0.41546469445787626           0.12371407503809406          1.0000   
         C         C         1.0       0.4033702743419473  0.4278669643166281  0.15077693405518056          1.0000   
         C         C         1.0       0.4274347669390197  0.47044762625711906           0.15402948152844484          1.0000   
         C         C         1.0       0.42171832490660943           0.5015499023099946 0.13129658324968774          1.0000   
         C         C         1.0       0.39051232378110684           0.4884964156146064 0.10577363672266649          1.0000   
         C         C         1.0       0.3661612687948081  0.4457154925750451  0.10238636031171722          1.0000   
         H         H         1.0       0.4044736894287195  0.4051736575156682  0.1698503771184517 1.0000   
         H         H         1.0       0.44901851442909185           0.47668755746078456          0.1753769946892984 1.0000   
         H         H         1.0       0.3844585120737107  0.511827994244448   0.08741628397036494          1.0000   
         H         H         1.0       0.3409574133394684  0.4353417338095959  0.08156364667827454          1.0000   
         C         C         1.0       0.4723885683044777  0.565377233633697   0.06762011768734832          1.0000   
         C         C         1.0       0.4634870212170264  0.5805747010146735  0.10084609847952963          1.0000   
         C         C         1.0       0.4695548727411123  0.6251239741488152  0.10406001110764329          1.0000   
         C         C         1.0       0.4860846519963147  0.6522578948352274  0.07509008678162023          1.0000   
         C         C         1.0       0.4978117016441309  0.6376125902277716  0.04345982735938758          1.0000   
         C         C         1.0       0.48654179881548143           0.5942186011730458 0.039577140549031053         1.0000   
         C         C         1.0       0.4521258784178809  0.5516149156569893  0.13594665021724173          1.0000   
         C         C         1.0       0.500574340815004   0.5589855745229034  0.14732385323999744          1.0000   
         C         C         1.0       0.5262308120192926  0.5985267113065842  0.16195941882608247          1.0000   
         C         C         1.0       0.5702093239980117  0.6087891394027423  0.16293327057802656          1.0000   
         C         C         1.0       0.5882484052538514  0.5823652705493966  0.14957548321761638          1.0000   
         C         C         1.0       0.5638249506803258  0.5447134965596471  0.1340431957747903 1.0000   
         C         C         1.0       0.5194830914604849  0.5320746552724228  0.13312564847039332          1.0000   
         C         C         1.0       0.38833653574951643           0.5718975249677335 0.15493619163634953          1.0000   
         C         C         1.0       0.3631958457804766  0.5810691838478779  0.17989876021349985          1.0000   
         C         C         1.0       0.36954958609247174           0.5773211833748975 0.21621610690084214          1.0000   
         C         C         1.0       0.4053566734602241  0.5707601896612596  0.22566753013016724          1.0000   
         C         C         1.0       0.43057638112104757           0.5601648291282291 0.20187680030163094          1.0000   
         C         C         1.0       0.423758680808368   0.5640673532881849  0.16579819931956774          1.0000   
         C         C         1.0       0.3374498815516082  0.5835446541023483  0.24701640258481464          1.0000   
         C         C         1.0       0.39937939371422415           0.7190212134822666 0.2793060908812196 1.0000   
         C         C         1.0       0.3835719533092013  0.7076347204449631  0.24639384811117757          1.0000   
         C         C         1.0       0.366583368694368   0.6651543113287144  0.23601259610801936          1.0000   
         C         C         1.0       0.3651504938939335  0.632436073500961   0.2593554325620567 1.0000   
         C         C         1.0       0.3845853936819192  0.642992379982695   0.291975874336854  1.0000   
         C         C         1.0       0.3999366688148007  0.6852748577243314  0.3030736983430362 1.0000   
         C         C         1.0       0.3237185298490579  0.54861682379212    0.27848647476937916          1.0000   
         C         C         1.0       0.3299446437604334  0.5093310140100888  0.27601758819939454          1.0000   
         C         C         1.0       0.308812105804538   0.4747258361687014  0.29671258153479124          1.0000   
         C         C         1.0       0.27933078147736873           0.4782478489309819 0.3212132776257794 1.0000   
         C         C         1.0       0.27891098737834047           0.51794192306731   0.3291782581407625 1.0000   
         C         C         1.0       0.30359738216199544           0.5540590998640111 0.30928484164924663          1.0000   
         C         C         1.0       0.27093954195657016           0.6051452500744952 0.24396248372219279          1.0000   
         C         C         1.0       0.23063341188361658           0.5996503370460323 0.23187106276053404          1.0000   
         C         C         1.0       0.20954745065481767           0.563532121889752  0.2112359958082315 1.0000   
         C         C         1.0       0.2265261119945886  0.5333524777394879  0.20455233566383432          1.0000   
         C         C         1.0       0.2673425203929809  0.5398972959466979  0.21704279515623529          1.0000   
         C         C         1.0       0.2908706637599752  0.5763549636072433  0.23523914814600236          1.0000   
         H         H         1.0       0.46611283530441733           0.5302503503313036 0.06488616656040858          1.0000   
         H         H         1.0       0.46675381600143606           0.6406938993684993 0.12817065870617195          1.0000   
         H         H         1.0       0.49212931417494127           0.6848810740734853 0.07933430342727821          1.0000   
         H         H         1.0       0.4895025154015808  0.5788195252642383  0.014804819250656687         1.0000   
         H         H         1.0       0.5102142813246583  0.6179390972491392  0.17146384278155752          1.0000   
         H         H         1.0       0.5873519675981262  0.6401753514534265  0.17609823601416524          1.0000   
         H         H         1.0       0.5769100037532404  0.521963392192364   0.12175415845883597          1.0000   
         H         H         1.0       0.49937501209478163           0.5039795305326279 0.11878125508117687          1.0000   
         H         H         1.0       0.38481866788636915           0.5750882081266416 0.12603534764672863          1.0000   
         H         H         1.0       0.3354250039095244  0.5846661562549779  0.17119057400850438          1.0000   
         H         H         1.0       0.41326344696512374           0.5706035011903734 0.25365820090724034          1.0000   
         H         H         1.0       0.45359136707262504           0.5461644205148646 0.20790828880060722          1.0000   
         H         H         1.0       0.3816874723407258  0.7346517704178456  0.23081723362187417          1.0000   
         H         H         1.0       0.35497078409429034           0.6562024484755457 0.2101344011194819 1.0000   
         H         H         1.0       0.3821046265438952  0.6180206787711535  0.30947090865242016          1.0000   
         H         H         1.0       0.40591185842428307           0.6929242126635959 0.3309367915339708 1.0000   
         H         H         1.0       0.3475027695014764  0.5029928425655583  0.25445034261479654          1.0000   
         H         H         1.0       0.3127716128127076  0.44405722244236157           0.2928517186997364 1.0000   
         H         H         1.0       0.25803199293527873           0.5205416759241654 0.35101494154370383          1.0000   
         H         H         1.0       0.29977361406739633           0.5836121060590668 0.3151458434784551 1.0000   
         H         H         1.0       0.2850917481636133  0.6347782172527533  0.25896548566660993          1.0000   
         H         H         1.0       0.6847625276203466  0.48260358551593086           0.26968003103599947          1.0000   
         H         H         1.0       0.2142067461525675  0.5062167713675139  0.18631201855775048          1.0000   
         H         H         1.0       0.2827145345847191  0.51705703092442    0.20950619007987262          1.0000   
         C         C         1.0       0.48944218225369873           0.5976000513824717 0.3789064734264132 1.0000   
         C         C         1.0       0.5585722416972303  0.14925155997241363           0.3964843266092805 1.0000   
         C         C         1.0       0.5835826917770487  0.13872396964085332           0.42109807952718725          1.0000   
         C         C         1.0       0.5744234935004745  0.09505387882018355           0.4289588120260464 1.0000   
         C         C         1.0       0.5227534123191373  0.5476199741816757  0.3936737379096946 1.0000   
         C         C         1.0       0.49030035413301704           0.5569239516246771 0.37811620377017996          1.0000   
         H         H         1.0       0.5567591033490894  0.18082645259551522           0.3954952724123589 1.0000   
         H         H         1.0       0.6109856098792599  0.16272987393485613           0.4307149965805926 1.0000   
         H         H         1.0       0.5236638864591178  0.5152262678987296  0.3900956415249015 1.0000   
         H         H         1.0       0.4653827716832326  0.5300890270351153  0.36489500088485494          1.0000   
         C         C         1.0       0.1419056503804929  0.557257690557703   0.4416584374447158 1.0000   
         C         C         1.0       0.585839687233915   0.03088160620972302           0.467116480513464  1.0000   
         C         C         1.0       0.20200009180118664           0.5975222869885826 0.4039202495588144 1.0000   
         C         C         1.0       0.21999179669144725           0.5676088437147719 0.4100257672264771 1.0000   
         C         C         1.0       0.19911503821265675           0.532056197103315  0.4304924771515856 1.0000   
         C         C         1.0       0.16084749445656435           0.5273828926916799 0.4462858007334667 1.0000   
         C         C         1.0       0.607268819799982   0.08045513391322667           0.4512769420939235 1.0000   
         C         C         1.0       0.141324589284714   0.12076111065971461           0.4374470853165819 1.0000   
         C         C         1.0       0.1837077267500552  0.14497123415689128           0.43811615351969224          1.0000   
         C         C         1.0       0.2042297633701166  0.15752767070364168           0.4706453078069249 1.0000   
         C         C         1.0       0.18239043669144123           0.14175487116682328          0.501764790726635  1.0000   
         C         C         1.0       0.1397124037785292  0.11872907760024454           0.5002557913217693 1.0000   
         C         C         1.0       0.6076633368473686  0.1317125587928505  0.5025370851188273 1.0000   
         C         C         1.0       0.6362745823861121  0.05934971017698931           0.39345869376716314          1.0000   
         C         C         1.0       0.6607614876296567  0.06710723813459585           0.3637111063092788 1.0000   
         C         C         1.0       0.6944615656298868  0.10825059777490753           0.35949475601951125          1.0000   
         C         C         1.0       0.7028320310281843  0.13822610880229047           0.38784318432687626          1.0000   
         C         C         1.0       0.6791510866628933  0.12691270674839128           0.4200092680275523 1.0000   
         C         C         1.0       0.6442168726473944  0.08819306020339113           0.4208590504616622 1.0000   
         C         C         1.0       0.7158515415287997  0.11819160260431505           0.3226462468878698 1.0000   
         C         C         1.0       0.3289915241624452  0.7660890982151927  0.29864097031860315          1.0000   
         C         C         1.0       0.7997613202581869  0.571985753885374   0.3380427846550621 1.0000   
         C         C         1.0       0.762088797592857   0.5728218673746425  0.3269954370900063 1.0000   
         C         C         1.0       0.7573660970145277  0.10729966508137444           0.3308751174688425 1.0000   
         C         C         1.0       0.2712327221256049  0.2659950414771606  0.3160110649180892 1.0000   
         C         C         1.0       0.3093122435598439  0.261551244186435   0.32269502317014914          1.0000   
         C         C         1.0       0.7311650745042497  0.16812018288597788           0.310196701281377  1.0000   
         C         C         1.0       0.7086538835333713  0.1937293127155941  0.32159328149074423          1.0000   
         C         C         1.0       0.7210697143826738  0.23581989485614185           0.30738075482705385          1.0000   
         C         C         1.0       0.7565794203874145  0.25421028625017733           0.2859101784667048 1.0000   
         C         C         1.0       0.7781456334168293  0.22769818972987105           0.2761583308346632 1.0000   
         C         C         1.0       0.7651281327360923  0.1850749862414444  0.2857079430315216 1.0000   
         C         C         1.0       0.7059432616152541  0.09101081289480129           0.25707956547293936          1.0000   
         C         C         1.0       0.6816207941450094  0.07915262680524471           0.2269603126038942 1.0000   
         C         C         1.0       0.6668882026463328  0.5750285781432963  0.20681929863164472          1.0000   
         C         C         1.0       0.6206489770067263  0.08144933632531148           0.259718861399808  1.0000   
         C         C         1.0       0.6458946187577875  0.09761442287051891           0.28893491273297744          1.0000   
         C         C         1.0       0.6874095579936407  0.0978336043664747  0.2892341157481209 1.0000   
         H         H         1.0       0.10047229873999766           0.023468462620998443         0.427288331127533  1.0000   
         H         H         1.0       0.6287552154185535  0.5046125835539171  0.44044020657387817          1.0000   
         H         H         1.0       0.24992357483016342           0.5730480613628413 0.3965534535146056 1.0000   
         H         H         1.0       0.14482705951748578           0.5009555804070384 0.46601489892186476          1.0000   
         H         H         1.0       0.2024056216256439  0.15280381208666377           0.4144470737398644 1.0000   
         H         H         1.0       0.23967338483977382           0.17833834671521762          0.47239651817751144          1.0000   
         H         H         1.0       0.12123305335430018           0.10608436787297082          0.5241005992777701 1.0000   
         H         H         1.0       0.5845668235875064  0.13974150800018337           0.49051603036892444          1.0000   
         H         H         1.0       0.6077624443124684  0.5187580998449757  0.3770209791683933 1.0000   
         H         H         1.0       0.6553228227012815  0.5410653932177708  0.32879898581451655          1.0000   
         H         H         1.0       0.18396222121167322           0.247647779443552  0.35654553100627795          1.0000   
         H         H         1.0       0.1544114442650699  0.19578104803769358           0.40261085643771194          1.0000   
         H         H         1.0       0.8064771768408789  0.5438033035045108  0.33259485144570083          1.0000   
         H         H         1.0       0.738018137846524   0.5434710099064516  0.31325978714405045          1.0000   
         H         H         1.0       0.26509603544627686           0.28932546625194916          0.3307761953136959 1.0000   
         H         H         1.0       0.3327800433053375  0.2813228086862192  0.34089698802839974          1.0000   
         H         H         1.0       0.6823718522616532  0.18365708279003912           0.3398572795309725 1.0000   
         H         H         1.0       0.7017100310756011  0.2547589407101915  0.31265430266917327          1.0000   
         H         H         1.0       0.8068427546869015  0.236297939810808   0.258912837294328  1.0000   
         H         H         1.0       0.7862077880891039  0.16744522849047574           0.2801445137279643 1.0000   
         H         H         1.0       0.7394032190045441  0.09388244678307811           0.2536682290503798 1.0000   
         H         H         1.0       0.7260759046162992  0.5676996117529247  0.2012207340849265 1.0000   
         H         H         1.0       0.5887587080532031  0.08184601784357226           0.2601141544634918 1.0000   
         H         H         1.0       0.6303736464429096  0.1083969688260813  0.30922305114482707          1.0000   
         C         C         1.0       0.7695926612468719  0.2987672855387038  0.2667146797273473 1.0000   
         C         C         1.0       0.24777207866982892           0.4384563750576224 0.3406035741503303 1.0000   
         H         H         1.0       0.2031364517178649  0.4407752469727457  0.30150369243721165          1.0000   
         H         H         1.0       0.7429879818668924  0.31049861385498567           0.26805836190520854          1.0000   
         H         H         1.0       0.2453476137640371  0.45218399346272925           0.36806570524512916          1.0000   
         H         H         1.0       0.2628001385245515  0.4140626664328073  0.3476255800427544 1.0000   
         C         C         1.0       0.6379434593698328  0.5968691620432693  0.1501810645695867 1.0000   
         C         C         1.0       0.6556041445284646  0.5665891538110085  0.16694127731611857          1.0000   
         H         H         1.0       0.6249481998908963  0.10175597215392163           0.15323645759525473          1.0000   
         H         H         1.0       0.6102606231096349  0.12420208235128394           0.1932215847746021 1.0000   
         H         H         1.0       0.6801447065337175  0.5651852882529168  0.14898716341072452          1.0000   
         H         H         1.0       0.6344451373026454  0.5327506250343512  0.16615971277685732          1.0000   
         C         C         1.0       0.4084988374972892  0.7660150948736858  0.29449876622090193          1.0000   
         C         C         1.0       0.373534626480362   0.7718741278106201  0.31821489841798817          1.0000   
         H         H         1.0       0.4394710477552494  0.7764587121693846  0.3078243343934332 1.0000   
         H         H         1.0       0.4148106088580395  0.7846817159233405  0.2708249784638713 1.0000   
         H         H         1.0       0.3674032419221685  0.748313900285169   0.3408053769934473 1.0000   
         H         H         1.0       0.38548433854513836           0.8039989842839967 0.3324700980641473 1.0000   
         C         C         1.0       0.450358672330348   0.6059114136025255  0.3688213972646224 1.0000   
         C         C         1.0       0.42093356720324226           0.6104429795732803 0.3981555929709173 1.0000   
         H         H         1.0       0.4555540512836822  0.6340705407177486  0.3497055161164946 1.0000   
         H         H         1.0       0.46184814068473806           0.10070965134561294          0.3559548577695794 1.0000   
         H         H         1.0       0.43301413254843696           0.6453265918402434 0.4035686416582152 1.0000   
         H         H         1.0       0.3871119097869252  0.6036392083644982  0.38656798112960405          1.0000   
         C         C         1.0       0.24784099094815518           0.18836132550089357          0.5421199509969603 1.0000   
         C         C         1.0       0.20448305158310304           0.15193658205476354          0.538808710948755  1.0000   
         H         H         1.0       0.26095131193246157           0.18225105033596073          0.5664019516621611 1.0000   
         H         H         1.0       0.27265062789432637           0.19001560090285577          0.5233090985739164 1.0000   
         H         H         1.0       0.18105197956312177           0.15448944067805978          0.5580880444781707 1.0000   
         H         H         1.0       0.20686772659154967           0.11947874390199685          0.5453690684969861 1.0000   
         C         C         1.0       0.22161815084945083           0.5003069809424494 0.4386775667359796 1.0000   
         C         C         1.0       0.1914826727842853  0.4525625520060149  0.4417554125379737 1.0000   
         H         H         1.0       0.24575296725538123           0.5001945960334649 0.41794882205082423          1.0000   
         H         H         1.0       0.23559247695983704           0.5106449009782724 0.4637408008880699 1.0000   
         H         H         1.0       0.15785148495511067           0.45052160455138385          0.4424318030674734 1.0000   
         H         H         1.0       0.19052181546649138           0.43782830176661497          0.41532691118430604          1.0000   
         C         C         1.0       0.38030544975530206           0.2739012678127036 0.5498956304793813 1.0000   
         C         C         1.0       0.4142217082392669  0.2582268997616769  0.5360545561768943 1.0000   
         H         H         1.0       0.35288500609974066           0.2443453421699393 0.5521907304277105 1.0000   
         H         H         1.0       0.37553928413697524           0.29596600072326623          0.5282672689731385 1.0000   
         H         H         1.0       0.44467677032763253           0.2765906313573316 0.5476308600674532 1.0000   
         H         H         1.0       0.41477051851746016           0.26205581930377875          0.5073032541236269 1.0000   
         C         C         1.0       0.727346422176137   0.397833675475874   0.7523823022674649 1.0000   
         C         C         1.0       0.13222323778084538           0.2997256523572631 0.6857209108499013 1.0000   
         H         H         1.0       0.7379758690243743  0.43265891489778835           0.7506800084462119 1.0000   
         H         H         1.0       0.7468194762768277  0.3901350462839613  0.7737479799511598 1.0000   
         H         H         1.0       0.7608324040137217  0.3712084359490104  0.7159309436778398 1.0000   
         H         H         1.0       0.10144222586638607           0.2787178786741323 0.6751092664152417 1.0000   
         C         C         1.0       0.5178338992894509  0.55912906102738    0.6416278121645298 1.0000   
         C         C         1.0       0.5090219654927306  0.5454629647399741  0.6811775423461884 1.0000   
         H         H         1.0       0.5321732422966264  0.5945407057506881  0.6387723045299839 1.0000   
         H         H         1.0       0.5433136311994113  0.5500068988898208  0.6310571092093109 1.0000   
         H         H         1.0       0.4904570923979958  0.5631536409119055  0.6907271807508112 1.0000   
         H         H         1.0       0.5374299977437584  0.5550114596525676  0.6984852356442279 1.0000   
         C         C         1.0       0.42831227167212976           0.12969326622614738          0.8478669041322963 1.0000   
         C         C         1.0       0.4205665448474615  0.15572007178647393           0.815953164165872  1.0000   
         H         H         1.0       0.4061599095015696  0.09487101699688161           0.8504781914910676 1.0000   
         H         H         1.0       0.4216964251182068  0.14532244850820797           0.872720140939586  1.0000   
         H         H         1.0       0.38831427334816493           0.156912446345561  0.8183528812098598 1.0000   
         H         H         1.0       0.41584517082285444           0.13798089072450126          0.7899057967960275 1.0000   
         C         C         1.0       0.21959302845871442           0.24188525808446634          0.7426428910781592 1.0000   
         C         C         1.0       0.24693066774818886           0.28543214311623   0.7604502431414836 1.0000   
         H         H         1.0       0.238809206538041   0.22564354824116847           0.7283097581836296 1.0000   
         H         H         1.0       0.20637539469064797           0.2522566959672701 0.7197059879616283 1.0000   
         H         H         1.0       0.24988459111046604           0.27940251440116426          0.7893379280411864 1.0000   
         H         H         1.0       0.2295299227794353  0.30696027886688043           0.7624364690214851 1.0000   
         C         C         1.0       0.5792191835256495  0.4626686430880293  0.913218955717412  1.0000   
         C         C         1.0       0.5365850897167943  0.4664219539206374  0.9258170781102855 1.0000   
         H         H         1.0       0.6043909937579742  0.4933130385158725  0.9053419573439808 1.0000   
         H         H         1.0       0.5946916707895675  0.4506234831399134  0.9339415235533862 1.0000   
         H         H         1.0       0.5360262668687239  0.47226543890637923           0.9537475003696219 1.0000   
         H         H         1.0       0.5101255618378753  0.43440148344600177           0.9257423449582001 1.0000   
         C         C         1.0       0.6183401907819549  0.4547692126407685  0.20653253527183812          1.0000   
         C         C         1.0       0.6332524636730545  0.4218691010478026  0.22678983251056772          1.0000   
         H         H         1.0       0.639611793127753   0.4865574310624631  0.21431147295153763          1.0000   
         H         H         1.0       0.5857275188723176  0.45054739413522493           0.21556117231252947          1.0000   
         H         H         1.0       0.15050914641975682           0.5746431775248797 0.21436886447847514          1.0000   
         H         H         1.0       0.6184312123610735  0.3873354158431463  0.21671984419819323          1.0000   
         C         C         1.0       0.4630001846458698  0.13196247983657572           0.9579638067566147 1.0000   
         C         C         1.0       0.49339560017191497           0.1213809350396522 0.9819128701362733 1.0000   
         H         H         1.0       0.4310922978642305  0.1078824690829918  0.9599537877722766 1.0000   
         H         H         1.0       0.4755139931999992  0.135961409434836   0.9300692229060454 1.0000   
         H         H         1.0       0.5058397774341146  0.09952842652964987           0.9668044124501157 1.0000   
         H         H         1.0       0.5191589125278215  0.15007404510088326           0.9900286565304056 1.0000   
         C         C         1.0       0.3693025302046122  0.33229223282214204           0.11783339024588546          1.0000   
         C         C         1.0       0.3483254751145845  0.3664379101648004  0.11604934164415659          1.0000   
         H         H         1.0       0.34436437147898025           0.29991957364635524          0.12066055830607092          1.0000   
         H         H         1.0       0.38752009092999706           0.33346817512245197          0.14359213542245608          1.0000   
         H         H         1.0       0.3337444525332967  0.36181036969084485           0.09048949462986022          1.0000   
         H         H         1.0       0.32128809100757644           0.35705590779249036          0.13714911363268523          1.0000   
         C         C         1.0       0.7745566515594119  0.4267649825578103  0.9493853358209049 1.0000   
         C         C         1.0       0.7765560624717882  0.45373824339749597           0.9838798094559128 1.0000   
         H         H         1.0       0.8074991847659934  0.4443280072580337  0.9385169503859897 1.0000   
         H         H         1.0       0.7554746800544966  0.437516891229054   0.9321567690689277 1.0000   
         H         H         1.0       0.7927279420593497  0.4892168082034143  0.9785350253919504 1.0000   
         H         H         1.0       0.799040016436575   0.44817576472853965           0.0037310491401134627        1.0000   
         C         C         1.0       0.35656195873555474           0.3181600699363326 0.8492893823632508 1.0000   
         C         C         1.0       0.3878271248288053  0.3519989557727992  0.8742731932214564 1.0000   
         H         H         1.0       0.3733886514142631  0.2981705548377021  0.8386087590046586 1.0000   
         H         H         1.0       0.34796510180293433           0.33300976953657374          0.8269545573732175 1.0000   
         H         H         1.0       0.37403469907330156           0.3755854121678581 0.883557156197195  1.0000   
         H         H         1.0       0.41416100621369706           0.375079824414136  0.8570632928952017 1.0000   
         C         C         1.0       0.6442874059821162  0.6659100614719531  0.04454662848996782          1.0000   
         C         C         1.0       0.6064644647521097  0.6236777430116548  0.050002338110711086         1.0000   
         H         H         1.0       0.675558850768322   0.6669742469721238  0.053205715877835846         1.0000   
         H         H         1.0       0.6374436320317597  0.6870919254233708  0.06433993735384358          1.0000   
         H         H         1.0       0.5764514690146421  0.6248364629246432  0.04029857678589677          1.0000   
         H         H         1.0       0.6017453575580887  0.6242958854738624  0.07920662313870785          1.0000   
         C         C         1.0       0.6971960601489744  0.9597142255810509  0.9702939393284327 1.0000   
         C         C         1.0       0.6813839528165858  0.930332538434097   0.9982486463906642 1.0000   
         C         C         1.0       0.6542264380691513  0.9350822641862436  0.022818781316556125         1.0000   
         C         C         1.0       0.6350945476366782  0.965549133266614   0.017421862846576097         1.0000   
         C         C         1.0       0.6464974177879564  0.9911145629989829  0.9871392677300656 1.0000   
         C         C         1.0       0.6777505843106866  0.9900455713132248  0.9656707488257723 1.0000   
         H         H         1.0       0.6933349556850931  0.9053603659646465  0.0007779838250299154        1.0000   
         H         H         1.0       0.6457234903351008  0.9165710825327171  0.04514740848959198          1.0000   
         H         H         1.0       0.6333156465816553  0.01609099963002736           0.9815860769353612 1.0000   
         H         H         1.0       0.6877313733036764  0.013353138278226151         0.9430581135936024 1.0000   
         C         C         1.0       0.6389523071835924  0.05081760120166945           0.046718656186175433         1.0000   
         C         C         1.0       0.5997742457406772  0.015574901435457589         0.044936054628447186         1.0000   
         C         C         1.0       0.5640914455765996  0.02462032749344334           0.04696192259434229          1.0000   
         C         C         1.0       0.5660547814600934  0.06699312865724871           0.05090224928797227          1.0000   
         C         C         1.0       0.6042162244159535  0.09992132818481547           0.0574586000658448 1.0000   
         C         C         1.0       0.6411085976246276  0.09198071235482219           0.0540412593528925 1.0000   
         C         C         1.0       0.5983395161027837  0.9687743168734501  0.040935276163895695         1.0000   
         C         C         1.0       0.6029352041326378  0.960433281192452   0.08381558609791462          1.0000   
         C         C         1.0       0.5657806557434559  0.9444711009510479  0.10543064688712422          1.0000   
         C         C         1.0       0.5690106497551303  0.9447243193024277  0.14108581275847998          1.0000   
         C         C         1.0       0.6073603740817588  0.9553707697395559  0.156965737250929  1.0000   
         C         C         1.0       0.6448858802579822  0.9719162600428143  0.13634400223742094          1.0000   
         C         C         1.0       0.6410803238837953  0.9716866486833154  0.09982943379578724          1.0000   
         C         C         1.0       0.5355546216521628  0.9407261939195877  0.9947523572090589 1.0000   
         C         C         1.0       0.5007808215247147  0.9068971294516861  0.9832059834221489 1.0000   
         C         C         1.0       0.4927722849730109  0.8647693188845849  0.9939866975382801 1.0000   
         C         C         1.0       0.5170855672568991  0.856676592528336   0.020453563916587703         1.0000   
         C         C         1.0       0.5504842706418337  0.8908841488121017  0.03366232655728041          1.0000   
         C         C         1.0       0.5589288640774951  0.9344228152638706  0.023106747870157207         1.0000   
         C         C         1.0       0.45099604935628235           0.8251008292288073 0.9812411965636137 1.0000   
         C         C         1.0       0.348153582372043   0.8234588509522422  0.05563617261895715          1.0000   
         C         C         1.0       0.3572591738546297  0.8463863499150074  0.024569063591986184         1.0000   
         C         C         1.0       0.389514891077896   0.8479079944222255  0.002074251935983984         1.0000   
         C         C         1.0       0.41317225921680173           0.8235514867149222 0.010076629044282415         1.0000   
         C         C         1.0       0.4065010155889487  0.803261726886052   0.042498447477629986         1.0000   
         C         C         1.0       0.3762967179336524  0.8055660620007892  0.06630255778656635          1.0000   
         C         C         1.0       0.4597198497737904  0.7806983054362183  0.9784336312404585 1.0000   
         C         C         1.0       0.4980070822952833  0.7807809219163766  0.9636294531725539 1.0000   
         C         C         1.0       0.5054981987112366  0.7429921802715309  0.9598653300792864 1.0000   
         C         C         1.0       0.4759379984236984  0.7042989159945161  0.9720517698066462 1.0000   
         C         C         1.0       0.4390716135802911  0.7047823370962816  0.9870649585169372 1.0000   
         C         C         1.0       0.4310606048144327  0.7425567029043229  0.9918515353871734 1.0000   
         C         C         1.0       0.3913620214152207  0.795150347666086   0.9330656717783881 1.0000   
         C         C         1.0       0.3739800292385517  0.7977926247923262  0.9017591252863343 1.0000   
         C         C         1.0       0.39251847107542137           0.8305116427797723 0.8793114098007349 1.0000   
         C         C         1.0       0.43497425622608554           0.8589200177383912 0.8855833054427839 1.0000   
         C         C         1.0       0.45429631420584154           0.8539721819891536 0.9156277331803978 1.0000   
         C         C         1.0       0.4318913407004056  0.8241516151590261  0.9417283416326653 1.0000   
         H         H         1.0       0.6656459402894442  0.04121420771951967           0.05273867842500346          1.0000   
         H         H         1.0       0.5324359380970141  0.9979828651980697  0.046160611618863534         1.0000   
         H         H         1.0       0.5378455106492052  0.07404311744964209           0.055135163643978524         1.0000   
         H         H         1.0       0.6724861373025073  0.11764587279566685           0.05758230114296259          1.0000   
         H         H         1.0       0.5326385550665362  0.9313849821513212  0.0960038303489692 1.0000   
         H         H         1.0       0.5412030205082625  0.9389637670403111  0.15659055811670952          1.0000   
         H         H         1.0       0.6728283736851051  0.9780114069635787  0.15154595621651157          1.0000   
         H         H         1.0       0.6710672450645029  0.9880170383926717  0.08390500333667061          1.0000   
         H         H         1.0       0.5447844224102242  0.9733691760387975  0.9822811113961418 1.0000   
         H         H         1.0       0.4799555398377819  0.9149873131487201  0.9658805722083783 1.0000   
         H         H         1.0       0.5048450579846042  0.8266925791627331  0.035253418540190706         1.0000   
         H         H         1.0       0.568518815355326   0.8850785887004183  0.055032469165730236         1.0000   
         H         H         1.0       0.33561566892759864           0.8599728297634321 0.01647198880781109          1.0000   
         H         H         1.0       0.3962841008524836  0.8700001447717999  0.9789521907563403 1.0000   
         H         H         1.0       0.4268218483394526  0.7867560562052233  0.05158001680491964          1.0000   
         H         H         1.0       0.3710152096416625  0.7861976525722895  0.08935779842531288          1.0000   
         H         H         1.0       0.5198575905780901  0.8119669932457195  0.9543002396393524 1.0000   
         H         H         1.0       0.5368348041622951  0.7470479261148864  0.9499556560276442 1.0000   
         H         H         1.0       0.41787170370427956           0.6764379086718344 0.9991197654072584 1.0000   
         H         H         1.0       0.40078823538429376           0.7395552704350173 0.005092892206578936         1.0000   
         H         H         1.0       0.3737147346484592  0.7745238489667611  0.9532766951158244 1.0000   
         H         H         1.0       0.3419570188035711  0.7762768989325598  0.8958798299402913 1.0000   
         H         H         1.0       0.4553042060285937  0.8839351262360281  0.8667356507192624 1.0000   
         H         H         1.0       0.48740774373701085           0.875205469926626  0.9182898870865314 1.0000   
         C         C         1.0       0.39861952840700665           0.6886739205454347 0.8284483335117897 1.0000   
         C         C         1.0       0.4091932589254629  0.723955132778328   0.8500364949975664 1.0000   
         C         C         1.0       0.4462093799015232  0.7592853576604492  0.8429502733348324 1.0000   
         C         C         1.0       0.4738132826329526  0.76013250766881    0.8141784587588129 1.0000   
         C         C         1.0       0.46421847552768636           0.7216802274992258 0.7965023243429882 1.0000   
         C         C         1.0       0.4264968587183419  0.6868137290499031  0.8026185794249023 1.0000   
         H         H         1.0       0.38660255413879757           0.7267005235057782 0.8696340466323895 1.0000   
         H         H         1.0       0.454445501490474   0.788892114090804   0.8572402709955624 1.0000   
         H         H         1.0       0.48424324963130694           0.7157411141853826 0.7769721015893203 1.0000   
         H         H         1.0       0.42151524766590903           0.660465468157407  0.7848285815076235 1.0000   
         C         C         1.0       0.5673445811934313  0.7728769110191193  0.7965310311972552 1.0000   
         C         C         1.0       0.5515947252740548  0.8028836388034378  0.7847206362922321 1.0000   
         C         C         1.0       0.5793352957428642  0.838569016858668   0.7643646946880239 1.0000   
         C         C         1.0       0.621650937746878   0.8449183857575536  0.7610421820205249 1.0000   
         C         C         1.0       0.6383595609810657  0.8161390003296727  0.7729050935368152 1.0000   
         C         C         1.0       0.6089266892430971  0.7788637253115219  0.7885249113297419 1.0000   
         C         C         1.0       0.5080208667895598  0.8040315045836988  0.7983970419816323 1.0000   
         C         C         1.0       0.5218459458127577  0.8417242956305825  0.8279331850930334 1.0000   
         C         C         1.0       0.5286286125497256  0.8847375479738877  0.8210983237472385 1.0000   
         C         C         1.0       0.5524685932417062  0.9188246725304057  0.8430849649665016 1.0000   
         C         C         1.0       0.5701862663404051  0.9076332569325292  0.8724180061475225 1.0000   
         C         C         1.0       0.5615662651523371  0.8657837265496516  0.8816359686024233 1.0000   
         C         C         1.0       0.5359494428525696  0.8330233738961063  0.860322879326028  1.0000   
         C         C         1.0       0.48146534457394263           0.7991122257782838 0.7323825690936457 1.0000   
         C         C         1.0       0.45422740809372275           0.8035470778921239 0.7062378157131328 1.0000   
         C         C         1.0       0.41900792172640006           0.8104146808241618 0.7159406167152287 1.0000   
         C         C         1.0       0.4155630357847029  0.8231949955287421  0.7498941331451429 1.0000   
         C         C         1.0       0.44391592960415777           0.8244705395682851 0.7761487104822241 1.0000   
         C         C         1.0       0.48035217925790746           0.8140876122045938 0.7673163026423588 1.0000   
         C         C         1.0       0.38492103687052426           0.8138630590409643 0.6879644949545541 1.0000   
         C         C         1.0       0.46780364483287756           0.9432354423929987 0.6480489543798981 1.0000   
         C         C         1.0       0.46384304721547315           0.9074963397404928 0.629716487079047  1.0000   
         C         C         1.0       0.4360550851496865  0.8669385581860728  0.639800191434762  1.0000   
         C         C         1.0       0.411044871566005   0.8623315363058188  0.6705399933380507 1.0000   
         C         C         1.0       0.41329272419250074           0.8995164553040167 0.6874439993738393 1.0000   
         C         C         1.0       0.44088087429715006           0.9404849381456944 0.6754145842666637 1.0000   
         C         C         1.0       0.3387188324130499  0.8042452987121549  0.7044719523110415 1.0000   
         C         C         1.0       0.3214377078472182  0.7710450195380917  0.7278785240968849 1.0000   
         C         C         1.0       0.27970152293664907           0.7571457708359918 0.7390589369450291 1.0000   
         C         C         1.0       0.2538896610173966  0.7759357440352344  0.7255114763515665 1.0000   
         C         C         1.0       0.27056746043616803           0.8113934229465852 0.7034051541765574 1.0000   
         C         C         1.0       0.3116370820138923  0.8244972940631383  0.6909446468088181 1.0000   
         C         C         1.0       0.35392427670888466           0.7808111903728275 0.6271404743144364 1.0000   
         C         C         1.0       0.3346843559970546  0.747742850113395   0.6036150676378287 1.0000   
         C         C         1.0       0.32648864094127905           0.706144663282757  0.6138298901949135 1.0000   
         C         C         1.0       0.34566765494425244           0.6974090677857773 0.6438099137644314 1.0000   
         C         C         1.0       0.3663206567625876  0.7308116950572541  0.6658799244140228 1.0000   
         C         C         1.0       0.3681598517585877  0.7734853439890452  0.6590492905410825 1.0000   
         H         H         1.0       0.5495671991152532  0.7435089530142982  0.8110404243549004 1.0000   
         H         H         1.0       0.5701693447138017  0.8669194940335249  0.7601557254541553 1.0000   
         H         H         1.0       0.6419444660292334  0.8717988314447287  0.7464444620446216 1.0000   
         H         H         1.0       0.6189635857983781  0.7528179186077038  0.7920003136466617 1.0000   
         H         H         1.0       0.5164828012892606  0.8924152210167331  0.7968886303510873 1.0000   
         H         H         1.0       0.5567656625090717  0.9515210130983334  0.8389398463581761 1.0000   
         H         H         1.0       0.5730600730988883  0.8573745187784593  0.9066038976762528 1.0000   
         H         H         1.0       0.5290469322142062  0.7981902616642352  0.867934916059684  1.0000   
         H         H         1.0       0.505915970367017   0.7871168485038614  0.7251821185241943 1.0000   
         H         H         1.0       0.4566022817327811  0.7943484975175362  0.6798588241490331 1.0000   
         H         H         1.0       0.3888531329165725  0.8261717072902495  0.7609068450454972 1.0000   
         H         H         1.0       0.439011272917297   0.8318107177678666  0.8040463423041233 1.0000   
         H         H         1.0       0.4845725698940649  0.9122610720558789  0.607660568472746  1.0000   
         H         H         1.0       0.4390259637297644  0.8402166690766314  0.6266643591534111 1.0000   
         H         H         1.0       0.3972263284669812  0.9039396410528715  0.7106825101754584 1.0000   
         H         H         1.0       0.440750988358973   0.9682802351823215  0.6895915049313726 1.0000   
         H         H         1.0       0.3403172739283752  0.7529200732881915  0.7346746501765004 1.0000   
         H         H         1.0       0.26623874927091085           0.7299992622359185 0.7577035299903466 1.0000   
         H         H         1.0       0.2507536297966539  0.8244035077321653  0.6902214494934625 1.0000   
         H         H         1.0       0.3215650692434329  0.8515824605565939  0.6744294262683731 1.0000   
         H         H         1.0       0.3555395389101081  0.8126534891959019  0.6187729924483981 1.0000   
         H         H         1.0       0.325842001285514   0.7546454331800676  0.5775257563467646 1.0000   
         H         H         1.0       0.3453678399960392  0.6672527065481871  0.6536185412628497 1.0000   
         H         H         1.0       0.3798769669765686  0.7247686021620282  0.6909749300362777 1.0000   
         C         C         1.0       0.1524726332960459  0.6793648394754149  0.7568876881658247 1.0000   
         C         C         1.0       0.11682946895665729           0.6850149302476677 0.7688520630324962 1.0000   
         C         C         1.0       0.0898608018815835  0.6592662645655394  0.7950954679878266 1.0000   
         C         C         1.0       0.10210683037425977           0.6296439016617909 0.8121540098248048 1.0000   
         C         C         1.0       0.14026632114526116           0.6262521024730753 0.8025213954125036 1.0000   
         C         C         1.0       0.16409705210971023           0.6494035945573753 0.7752737389878569 1.0000   
         H         H         1.0       0.10337867214543187           0.7087022355633136 0.7607557671451717 1.0000   
         H         H         1.0       0.06376852905337692           0.6681759629750296 0.8029520739271383 1.0000   
         H         H         1.0       0.16859997063048898           0.11471230056514181          0.805865409225912  1.0000   
         H         H         1.0       0.19202832400687322           0.6414713840305011 0.7711527903097182 1.0000   
         C         C         1.0       0.08585220778450782           0.04653138774446974          0.7987115584415059 1.0000   
         C         C         1.0       0.08547682605695144           0.06365926081732276          0.8329842187764595 1.0000   
         C         C         1.0       0.5810060708403586  0.05739283684084451           0.8647865343849092 1.0000   
         C         C         1.0       0.5921038826193795  0.02481605050207425           0.876982485911949  1.0000   
         C         C         1.0       0.6279924611211202  0.018931502312273807         0.8642121429353199 1.0000   
         C         C         1.0       0.07094316489548379           0.002565672785360462         0.79415621768576   1.0000   
         C         C         1.0       0.09682699453542433           0.11528142417318743          0.8370949865696407 1.0000   
         C         C         1.0       0.47332715659872865           0.6066201859411999 0.8523902019781177 1.0000   
         C         C         1.0       0.46375254028776425           0.6271761827209322 0.8798235744703928 1.0000   
         C         C         1.0       0.42366304456552295           0.6279971346928751 0.8850064008215097 1.0000   
         C         C         1.0       0.3914558341750093  0.6042719782533716  0.8619952413112607 1.0000   
         C         C         1.0       0.3999173856936072  0.5811419411972385  0.8344881540702338 1.0000   
         C         C         1.0       0.43931945212692325           0.5820794578162984 0.8306743079522064 1.0000   
         C         C         1.0       0.1569214116741366  0.11849820480322171           0.8805622017784543 1.0000   
         C         C         1.0       0.18588668693782595           0.1376396463411318 0.9067941411314163 1.0000   
         C         C         1.0       0.16838338049492935           0.698646832609682  0.9163590080510674 1.0000   
         C         C         1.0       0.13495636273310455           0.7072089282517507 0.9019561687963294 1.0000   
         C         C         1.0       0.10617822984173944           0.6776866806640093 0.8803097922063644 1.0000   
         C         C         1.0       0.10401910606788493           0.6350997969321535 0.8769369508675378 1.0000   
         C         C         1.0       0.20560320445347427           0.7322163459928877 0.9395759585086282 1.0000   
         C         C         1.0       0.6664356511684973  0.20380283734038684           0.04655301044210258          1.0000   
         C         C         1.0       0.7089804035145745  0.20949300501350332           0.0423635315713875 1.0000   
         C         C         1.0       0.283457780538023   0.17382997512824372           0.9667854038126086 1.0000   
         C         C         1.0       0.7078350122806659  0.22849078937634326           0.9816673164097529 1.0000   
         C         C         1.0       0.6668885004465387  0.23103464143681207           0.9885133616775005 1.0000   
         C         C         1.0       0.6461614879136388  0.2184372673462449  0.021412763792892253         1.0000   
         C         C         1.0       0.6866245545287345  0.7979942813791019  0.9033287677642055 1.0000   
         C         C         1.0       0.6694646311151193  0.8204705819474867  0.8793860908814456 1.0000   
         C         C         1.0       0.6834438305586839  0.8647477383173566  0.8807806167265795 1.0000   
         C         C         1.0       0.7089017153268307  0.887639857982481   0.9070204770499181 1.0000   
         C         C         1.0       0.7255944804967107  0.8670074579936028  0.9304527822175332 1.0000   
         C         C         1.0       0.1786328174448723  0.7771673790363061  0.9867496451122523 1.0000   
         C         C         1.0       0.26111630273728875           0.8089888761889708 0.9342404699972674 1.0000   
         C         C         1.0       0.29472612927133646           0.8374703065242989 0.9164509404881054 1.0000   
         C         C         1.0       0.29961060464624806           0.8360927736994794 0.8794941874275503 1.0000   
         C         C         1.0       0.26563888168348876           0.804609752037546  0.8619158920579868 1.0000   
         C         C         1.0       0.2315928422988631  0.776881216747377   0.8805363763575436 1.0000   
         C         C         1.0       0.23148688563603326           0.7749068462044246 0.9168492237219591 1.0000   
         H         H         1.0       0.09501689069731051           0.06923576004578935          0.7773080665177216 1.0000   
         H         H         1.0       0.5516478832468816  0.05819988700919043           0.8731608774905691 1.0000   
         H         H         1.0       0.5690438462205634  0.004520628527376003         0.8964903202711636 1.0000   
         H         H         1.0       0.06658996193708369           0.9895097691852329 0.7669774636471468 1.0000   
         H         H         1.0       0.4887229430949194  0.6428709422147935  0.8989642999206794 1.0000   
         H         H         1.0       0.41936079528544346           0.6497801494127714 0.9045735064018355 1.0000   
         H         H         1.0       0.3758296598265877  0.5671372726100693  0.812829763548359  1.0000   
         H         H         1.0       0.4448208215129947  0.5620083544462361  0.8084685087063037 1.0000   
         H         H         1.0       0.16341388185581093           0.09383284320717755          0.8687735823557433 1.0000   
         H         H         1.0       0.20800835411621482           0.12276417329236833          0.910927035737867  1.0000   
         H         H         1.0       0.13566046403183948           0.7401506762324034 0.9023883189957546 1.0000   
         H         H         1.0       0.08724891957677813           0.6884559853951256 0.8617387237914931 1.0000   
         H         H         1.0       0.7262819077363339  0.19969750612759118           0.06297618826866036          1.0000   
         H         H         1.0       0.30739872846169913           0.19806990159065774          0.95134536085613   1.0000   
         H         H         1.0       0.6524482434006137  0.24316094792345178           0.9675607718776438 1.0000   
         H         H         1.0       0.6135172618223725  0.21744444816348496           0.023466061035773533         1.0000   
         H         H         1.0       0.6501422868673163  0.8078202003888478  0.8560710427588047 1.0000   
         H         H         1.0       0.6710976634606095  0.8806437420525423  0.858767262332655  1.0000   
         H         H         1.0       0.7468632242839676  0.8821642620036056  0.9507677620385013 1.0000   
         H         H         1.0       0.19800943279906008           0.8081814419293721 0.9746848209937311 1.0000   
         H         H         1.0       0.26218883798874526           0.8086428489036994 0.9616523664027677 1.0000   
         H         H         1.0       0.32353426615073355           0.863002537796661  0.929774606221916  1.0000   
         H         H         1.0       0.2623747147637149  0.801613050876519   0.8336749802484685 1.0000   
         H         H         1.0       0.2747477976480949  0.18302066799153427           0.8931370217863901 1.0000   
         C         C         1.0       0.47483577695974394           0.03788676530654178          0.6174692036631718 1.0000   
         C         C         1.0       0.4413736525386433  0.04923574429992561           0.6262854101231067 1.0000   
         C         C         1.0       0.424360843146215   0.06649675235391705           0.598819472778351  1.0000   
         C         C         1.0       0.43418140868131266           0.0664905991516711 0.5635979443275883 1.0000   
         C         C         1.0       0.4677629223174419  0.052470406143387605         0.5560805030639532 1.0000   
         C         C         1.0       0.4879017951960038  0.03964787624805122           0.5816203366577535 1.0000   
         H         H         1.0       0.42986530597008277           0.04707468883541588          0.6530712763963146 1.0000   
         H         H         1.0       0.3988220053826328  0.07632484811854057           0.6064520981442674 1.0000   
         H         H         1.0       0.4766014875264361  0.054573818658368634         0.5278595458316979 1.0000   
         H         H         1.0       0.5163098704399449  0.037226160402069164         0.5720393575852404 1.0000   
         C         C         1.0       0.4659456987563169  0.11983576339453195           0.4903873044319363 1.0000   
         C         C         1.0       0.4238213306455976  0.09273743970526005           0.496298982937961  1.0000   
         C         C         1.0       0.3958793919429991  0.0790643248918641  0.46838162198356825          1.0000   
         C         C         1.0       0.40923254301669965           0.09731361342672074          0.4345988863281016 1.0000   
         C         C         1.0       0.4499853697627755  0.1279718182145022  0.4306594411217041 1.0000   
         C         C         1.0       0.4758084812815656  0.13965961486300027           0.4593414241390922 1.0000   
         C         C         1.0       0.40605703751073857           0.07963032710368756          0.5358475655596381 1.0000   
         C         C         1.0       0.40007136663771176           0.12420246253854073          0.5427642718299512 1.0000   
         C         C         1.0       0.36690727549182717           0.1321972032528682 0.5277350237564316 1.0000   
         C         C         1.0       0.371346942057903   0.17509431336194226           0.5268449793142151 1.0000   
         C         C         1.0       0.4039762067938022  0.20839319832680903           0.5444560301969829 1.0000   
         C         C         1.0       0.4339447671140373  0.19828499144620704           0.5614533297300888 1.0000   
         C         C         1.0       0.4320772908385803  0.15707218194358896           0.5609855681479633 1.0000   
         C         C         1.0       0.364400051178669   0.000249520947313675         0.5252859740082475 1.0000   
         C         C         1.0       0.33055271478833326           0.9600789483231025 0.5301733267310722 1.0000   
         C         C         1.0       0.29505997043454774           0.9584283460504035 0.5493866615884678 1.0000   
         C         C         1.0       0.29644965764701875           0.9961668876372017 0.5669215439699502 1.0000   
         C         C         1.0       0.3299954958587734  0.03587254589948863           0.5587960268394547 1.0000   
         C         C         1.0       0.3632466892721628  0.037958128353431375         0.5389168118519154 1.0000   
         C         C         1.0       0.24963401658588144           0.920068285117255  0.5449219574234279 1.0000   
         C         C         1.0       0.23770424259097703           0.9590046616233386 0.43626381451613794          1.0000   
         C         C         1.0       0.2544103424774689  0.9274845468019179  0.44249074697122637          1.0000   
         C         C         1.0       0.257764037056879   0.9150051456783785  0.4765403198913819 1.0000   
         C         C         1.0       0.24116959844801422           0.9291165469554015 0.5045658284117468 1.0000   
         C         C         1.0       0.2248686656070671  0.9615054506942545  0.49925210670260545          1.0000   
         C         C         1.0       0.22171763161479738           0.9752133085196669 0.464623496640979  1.0000   
         C         C         1.0       0.21601289912957064           0.91662627801643   0.572723136315559  1.0000   
         C         C         1.0       0.2279713037348832  0.9151674476048407  0.6079378704517927 1.0000   
         C         C         1.0       0.19864031479924507           0.9031194294130032 0.6346575400976394 1.0000   
         C         C         1.0       0.1564976108996887  0.8862086019035271  0.6273075586541252 1.0000   
         C         C         1.0       0.1434146576401656  0.8902486592752139  0.5937192490861427 1.0000   
         C         C         1.0       0.17222105397587825           0.9057582720338456 0.566343444974421  1.0000   
         C         C         1.0       0.21036554327456986           0.8365121277285045 0.532769327520878  1.0000   
         C         C         1.0       0.20286542370015206           0.7943229125492245 0.5410159969208308 1.0000   
         C         C         1.0       0.23114835758577099           0.7833954692730242 0.5622624467501677 1.0000   
         C         C         1.0       0.26689394490643364           0.8156039111849125 0.574725935763403  1.0000   
         C         C         1.0       0.27481923308315503           0.8567899157482547 0.566405533292416  1.0000   
         C         C         1.0       0.24670548024959987           0.8690651798632066 0.5459264418564067 1.0000   
         H         H         1.0       0.4867369233007271  0.1346415867865749  0.5127154602316446 1.0000   
         H         H         1.0       0.3622163208312105  0.06054429546733897           0.474069622326186  1.0000   
         H         H         1.0       0.3873919745212475  0.08549243930754313           0.41050378535180815          1.0000   
         H         H         1.0       0.5061067301719104  0.16483254869488895           0.45600516374830297          1.0000   
         H         H         1.0       0.3419412060944648  0.1057102854032379  0.5154595963627282 1.0000   
         H         H         1.0       0.350400964695981   0.18043266045248263           0.5072173432246568 1.0000   
         H         H         1.0       0.46037586009225595           0.22543732879749423          0.5751555026273526 1.0000   
         H         H         1.0       0.45753997108806754           0.151186657884405  0.5749074060091266 1.0000   
         H         H         1.0       0.39280203265550007           0.9991885257279707 0.512386583217595  1.0000   
         H         H         1.0       0.3328385880522344  0.9309108834976595  0.5191361687136831 1.0000   
         H         H         1.0       0.27026745035368377           0.994377377609991  0.5845049580646399 1.0000   
         H         H         1.0       0.3280260938194653  0.06642271605046668           0.5706139441001422 1.0000   
         H         H         1.0       0.27122251812546594           0.9195149693878791 0.42174658656126823          1.0000   
         H         H         1.0       0.27321037666401576           0.8904626495341293 0.48020926938649394          1.0000   
         H         H         1.0       0.21432615683011133           0.9751895984063271 0.5208254082838836 1.0000   
         H         H         1.0       0.21511570764609483           0.0046165936379483075        0.46021043242697135          1.0000   
         H         H         1.0       0.2578485000929179  0.9154547542977451  0.6154443590632392 1.0000   
         H         H         1.0       0.21363396614796007           0.8997925658962936 0.6598828592057304 1.0000   
         H         H         1.0       0.627528077977059   0.8029385876498808  0.6991837589214337 1.0000   
         H         H         1.0       0.15950198784750155           0.902877983867726  0.5409946089553938 1.0000   
         H         H         1.0       0.1876168775097678  0.8436135570708598  0.5157302537952266 1.0000   
         H         H         1.0       0.17057811909600004           0.7711070607495412 0.5369079624128842 1.0000   
         H         H         1.0       0.2882736833735439  0.8064400921344735  0.5919534034737816 1.0000   
         H         H         1.0       0.30448725995888615           0.8814724071842666 0.5787982928645996 1.0000   
         C         C         1.0       0.34593491125407444           0.8921144326055694 0.11629399979741573          1.0000   
         C         C         1.0       0.3782539413077383  0.9066423444685098  0.14070194915348955          1.0000   
         C         C         1.0       0.40746722307879446           0.9486524319139611 0.1385295243749829 1.0000   
         C         C         1.0       0.40060470607310633           0.978303468590231  0.1156872762351171 1.0000   
         C         C         1.0       0.3668103139761486  0.9632707429806819  0.09306832519486141          1.0000   
         C         C         1.0       0.33882391690928765           0.9197748899354932 0.09191744615038311          1.0000   
         H         H         1.0       0.3801256115649741  0.8811240319637028  0.16071388531397152          1.0000   
         H         H         1.0       0.4365171749923092  0.9568022204729937  0.15360487581997112          1.0000   
         H         H         1.0       0.35930941455987797           0.9867740159171047 0.0766068110812943 1.0000   
         H         H         1.0       0.3132166855644247  0.9089871750816113  0.07138132620255444          1.0000   
         C         C         1.0       0.44634014511126546           0.028043295224689846         0.04922390547622868          1.0000   
         C         C         1.0       0.4432819974346714  0.05002323644437534           0.07993379606388196          1.0000   
         C         C         1.0       0.45929502671925126           0.09608058469599356          0.0776601937695769 1.0000   
         C         C         1.0       0.4743820098226179  0.11794660465692619           0.046782990690998456         1.0000   
         C         C         1.0       0.47563052664916355           0.09557098553575805          0.016831619187309466         1.0000   
         C         C         1.0       0.4614399723464657  0.050542804230645944         0.017220466271929524         1.0000   
         C         C         1.0       0.42777105720758196           0.02922126683136317          0.11843413488319121          1.0000   
         C         C         1.0       0.4731430488038267  0.0436037078254381  0.13833861852967955          1.0000   
         C         C         1.0       0.4851024508760752  0.07462646371261394           0.16553304220431186          1.0000   
         C         C         1.0       0.5269245134498246  0.09177414259221739           0.17827226269179863          1.0000   
         C         C         1.0       0.5566742422534782  0.07782862057920892           0.16335572705278845          1.0000   
         C         C         1.0       0.544741942668485   0.04534970114348402           0.13999007735443314          1.0000   
         C         C         1.0       0.502565944219331   0.02763853448074194           0.12696394642412034          1.0000   
         C         C         1.0       0.37259588121013176           0.06525937982070973          0.11827411360048279          1.0000   
         C         C         1.0       0.3460041329149994  0.0810880240671159  0.13497360030123384          1.0000   
         C         C         1.0       0.3338699196770629  0.0698082242374709  0.17012941912275784          1.0000   
         C         C         1.0       0.35400626764328763           0.04735124641989885          0.187438540533006  1.0000   
         C         C         1.0       0.38386979042699176           0.034466623041380595         0.17193118497355567          1.0000   
         C         C         1.0       0.3952776013691345  0.04541443350077046           0.13733784115383552          1.0000   
         C         C         1.0       0.29683558650619857           0.08388407842481693          0.18962437871758264          1.0000   
         C         C         1.0       0.36960930123159474           0.18837623120809455          0.2586663323125848 1.0000   
         C         C         1.0       0.361064250481896   0.1985374852260784  0.22401834838392126          1.0000   
         C         C         1.0       0.3404762690763613  0.16434994346039278           0.201674140410363  1.0000   
         C         C         1.0       0.32610814832482504           0.12308669582546283          0.21308865150083936          1.0000   
         C         C         1.0       0.34286961820057843           0.11501379751976404          0.24430103837614767          1.0000   
         C         C         1.0       0.36269064673302864           0.1473568669698324 0.26695341296625597          1.0000   
         C         C         1.0       0.2635785898761076  0.0451099392150236  0.2121262446723077 1.0000   
         C         C         1.0       0.25140420096601207           0.004686699132327554         0.19835228142673034          1.0000   
         C         C         1.0       0.2221083003495384  0.9702223280213985  0.21707083482071907          1.0000   
         C         C         1.0       0.2039756776133084  0.9767887230828164  0.24839136518835445          1.0000   
         C         C         1.0       0.2171004088974616  0.017842572647091215         0.26279226384581394          1.0000   
         C         C         1.0       0.2462809806225476  0.05216048541746776           0.2447086080300878 1.0000   
         C         C         1.0       0.24188785020647138           0.11697164715400832          0.17896013684228484          1.0000   
         C         C         1.0       0.2091016312584962  0.12414072637453533           0.1621715362754008 1.0000   
         C         C         1.0       0.19893807765149793           0.10989805747068138          0.12877423446574102          1.0000   
         C         C         1.0       0.21660172337032826           0.08110054036995695          0.1145437059290344 1.0000   
         C         C         1.0       0.24982003282526138           0.07372208419317805          0.13245277492616903          1.0000   
         C         C         1.0       0.26236127909852003           0.09224344073232338          0.1656189602860503 1.0000   
         H         H         1.0       0.43334997889139193           0.9930204104377272 0.04646605291134498          1.0000   
         H         H         1.0       0.4621979278190494  0.11892994425280223           0.09997711049862112          1.0000   
         H         H         1.0       0.49116815140610737           0.15088024995713556          0.0488051407419654 1.0000   
         H         H         1.0       0.4634513115363175  0.028424283723815558         0.9965561402963447 1.0000   
         H         H         1.0       0.46333833660859286           0.0875601664549348 0.17499673747933356          1.0000   
         H         H         1.0       0.5358703129131197  0.11893719914805723           0.19797715425886392          1.0000   
         H         H         1.0       0.5666827036409344  0.031216153169962624         0.12790399747988057          1.0000   
         H         H         1.0       0.4938587722347912  0.0025846198569927648        0.10699777452531413          1.0000   
         H         H         1.0       0.3809167991764181  0.07292937870515326           0.09077122942657456          1.0000   
         H         H         1.0       0.3367093143096753  0.10344370138171999           0.12117352643638446          1.0000   
         H         H         1.0       0.34109197517170176           0.03333341952473834          0.21205250433800768          1.0000   
         H         H         1.0       0.3942657079271586  0.011458820706220285         0.18641834871592103          1.0000   
         H         H         1.0       0.36496253263705586           0.23310232845188983          0.21762269270452894          1.0000   
         H         H         1.0       0.3338193671286875  0.17258427523964648           0.1747321900222946 1.0000   
         H         H         1.0       0.3347745515645898  0.08086275731288284           0.25181951717701034          1.0000   
         H         H         1.0       0.3746053570705472  0.14188420837659654           0.2919689914246112 1.0000   
         H         H         1.0       0.262131237083458   0.9993431721795045  0.17143417464723465          1.0000   
         H         H         1.0       0.21185191469450312           0.9359718042165965 0.20757614752117862          1.0000   
         H         H         1.0       0.20281941280074284           0.02490900909045113          0.28657817459649837          1.0000   
         H         H         1.0       0.2545480173655437  0.08407448517978744           0.255876467743787  1.0000   
         H         H         1.0       0.2498939479012091  0.13618307158556475           0.20329439536786492          1.0000   
         H         H         1.0       0.6778169615399543  0.9642860968406372  0.2559931213545285 1.0000   
         H         H         1.0       0.2052059529510775  0.06597912544197793           0.09014449830655247          1.0000   
         H         H         1.0       0.26192461818040874           0.050560734587838496         0.1220013994798792 1.0000   
         C         C         1.0       0.5208918501225909  0.11736863864705516           0.3832945750802306 1.0000   
         C         C         1.0       0.5219162384990451  0.6310396480675414  0.39700136847014217          1.0000   
         C         C         1.0       0.551970116078513   0.621052731750663   0.4124969156101757 1.0000   
         C         C         1.0       0.5518492722925167  0.5791510217431105  0.4143896877273919 1.0000   
         C         C         1.0       0.5417700891296694  0.0645185571067659  0.4102111976190799 1.0000   
         C         C         1.0       0.5115273701925316  0.07479758425057526           0.39063076928235113          1.0000   
         H         H         1.0       0.5257500564116573  0.6641403916543598  0.39873205973696285          1.0000   
         H         H         1.0       0.5744878742255722  0.6441555107060986  0.42946019074302366          1.0000   
         H         H         1.0       0.5390866674081489  0.03203726555645825           0.4117000968105489 1.0000   
         H         H         1.0       0.48136761408924206           0.04866585738550566          0.38133838904765793          1.0000   
         C         C         1.0       0.1260034292150766  0.027933933405084765         0.40916464076164166          1.0000   
         C         C         1.0       0.5714183327431417  0.518368783845241   0.4473841444113497 1.0000   
         C         C         1.0       0.18407501000790683           0.07651540834402759          0.3757942830061546 1.0000   
         C         C         1.0       0.20153323919318206           0.04622155344874557          0.37436032496583477          1.0000   
         C         C         1.0       0.1778599634749348  0.0037397268540571016        0.38544237764281386          1.0000   
         C         C         1.0       0.14136479037875047           0.9954810144138994 0.40424277506526957          1.0000   
         C         C         1.0       0.5884090472031271  0.5686295355535431  0.43389593307844343          1.0000   
         C         C         1.0       0.15438327925763046           0.6531917862319446 0.4546375211077539 1.0000   
         C         C         1.0       0.19514482565204186           0.6792611672317186 0.4631424526794947 1.0000   
         C         C         1.0       0.20596337733996425           0.6985111308096645 0.4965502245211705 1.0000   
         C         C         1.0       0.1743052471475386  0.6855884298031809  0.5232316940344011 1.0000   
         C         C         1.0       0.13469942135647725           0.6572509286171591 0.5157323273491156 1.0000   
         C         C         1.0       0.5780217410052392  0.6060417050673589  0.49278631937147616          1.0000   
         C         C         1.0       0.6263894488374726  0.5513501087174717  0.375492179941471  1.0000   
         C         C         1.0       0.6549136117780162  0.564542780376684   0.34817051045713204          1.0000   
         C         C         1.0       0.6808014259666727  0.6073243907002767  0.34377893929451686          1.0000   
         C         C         1.0       0.675811063178114   0.6360615384756032  0.36783650951324504          1.0000   
         C         C         1.0       0.6482221746200441  0.6244380851736021  0.3955042096625901 1.0000   
         C         C         1.0       0.624001814420481   0.5809729732977117  0.4031852032747067 1.0000   
         C         C         1.0       0.7138266934996012  0.6182638125876623  0.31280452972780637          1.0000   
         C         C         1.0       0.3156521465111355  0.22914463978565314           0.30420839357775137          1.0000   
         C         C         1.0       0.795493420199071   0.059659039967348004         0.3307252963272946 1.0000   
         C         C         1.0       0.7603610485786314  0.06737269840604676           0.3220857655163397 1.0000   
         C         C         1.0       0.7534655246564066  0.6103826902880102  0.3304602742885727 1.0000   
         C         C         1.0       0.27160479870311655           0.7921590490952419 0.3046217908826405 1.0000   
         C         C         1.0       0.31477920238917423           0.7967559526249444 0.30950233958058515          1.0000   
         C         C         1.0       0.7324696775556     0.667759642754344   0.29431491089381256          1.0000   
         C         C         1.0       0.7091845098431688  0.6935802480022059  0.2923511826583226 1.0000   
         C         C         1.0       0.7201809444860425  0.7296312645098755  0.27068212497973954          1.0000   
         C         C         1.0       0.7591376007578304  0.7459781275392634  0.25650983532697075          1.0000   
         C         C         1.0       0.7823222328233699  0.7201573582549956  0.2544203624866061 1.0000   
         C         C         1.0       0.7714679088589578  0.6833497331592095  0.2751185283690108 1.0000   
         C         C         1.0       0.7207165751865999  0.5862835162908925  0.25269353680195233          1.0000   
         C         C         1.0       0.7070359884298215  0.5775984507450164  0.21719631614520848          1.0000   
         C         C         1.0       0.6399781842279797  0.07578944631145501           0.22936688508436612          1.0000   
         C         C         1.0       0.6411758849890126  0.5818173330161766  0.2315907250879575 1.0000   
         C         C         1.0       0.6531391950690136  0.5877873576388937  0.26662105702933814          1.0000   
         C         C         1.0       0.6939351582945945  0.5947812186341271  0.2766039144789643 1.0000   
         H         H         1.0       0.11400464287697316           0.5563667373230274 0.4552988178257477 1.0000   
         H         H         1.0       0.6359900261745589  0.008948263545088597         0.45352856439913347          1.0000   
         H         H         1.0       0.23305080298395758           0.05665506696217104          0.3632916777409609 1.0000   
         H         H         1.0       0.1285346748293486  0.9679331463828555  0.4212025900852317 1.0000   
         H         H         1.0       0.21876381217103236           0.6875617987408922 0.44460199365119213          1.0000   
         H         H         1.0       0.23898753321467187           0.7198373685353898 0.5009408668888521 1.0000   
         H         H         1.0       0.11291828733054954           0.6486765743144075 0.5370055155240295 1.0000   
         H         H         1.0       0.5480896442905233  0.6059899928066613  0.48328959758337003          1.0000   
         H         H         1.0       0.6099393820731335  0.028674772072767807         0.39331556007413754          1.0000   
         H         H         1.0       0.6589066572771819  0.041742219144826676         0.3438466949142796 1.0000   
         H         H         1.0       0.17612547216447594           0.7681189839148973 0.35960814140446556          1.0000   
         H         H         1.0       0.1619380667576541  0.7195845650611719  0.41384251121890353          1.0000   
         H         H         1.0       0.7986617071087484  0.029937865940087738         0.3253509418392334 1.0000   
         H         H         1.0       0.7322868405855286  0.041842510237655395         0.3107338425280325 1.0000   
         H         H         1.0       0.2615350923970158  0.813000217477494   0.3196521580495505 1.0000   
         H         H         1.0       0.3336506367588328  0.8226282052077928  0.3270047453438234 1.0000   
         H         H         1.0       0.681153601400459   0.6864938340940215  0.30990041039364924          1.0000   
         H         H         1.0       0.7009839370113942  0.7501590937780317  0.27396826093089843          1.0000   
         H         H         1.0       0.8131629912506525  0.7287352189802174  0.2403690111860209 1.0000   
         H         H         1.0       0.7946781760510646  0.6670526934835042  0.27315998370334815          1.0000   
         H         H         1.0       0.7498170045821888  0.5858924216277268  0.2611958589514697 1.0000   
         H         H         1.0       0.6964722440284383  0.07484669887917916           0.20261358989031023          1.0000   
         H         H         1.0       0.6119838974226467  0.5849417134390502  0.2223988952742409 1.0000   
         H         H         1.0       0.6355611064130613  0.6010259514571227  0.284765350611848  1.0000   
         C         C         1.0       0.7760033988945219  0.7907049928084444  0.23816588215141424          1.0000   
         C         C         1.0       0.17102934221153165           0.9394312491665917 0.27060057021621187          1.0000   
         H         H         1.0       0.14522598452497712           0.9016780596573252 0.22118536858684715          1.0000   
         H         H         1.0       0.757124505991868   0.8064411655927958  0.2510334053257903 1.0000   
         H         H         1.0       0.15058966337172655           0.95577155527664   0.28111333713402503          1.0000   
         H         H         1.0       0.190267731200114   0.9354654616043611  0.2936978020968271 1.0000   
         C         C         1.0       0.6025365523967426  0.09453470096382977           0.17590215508518495          1.0000   
         C         C         1.0       0.6113138173508699  0.059581725418499376         0.19845811158455712          1.0000   
         H         H         1.0       0.6472312550552238  0.5987343341087218  0.12094090409585423          1.0000   
         H         H         1.0       0.651134731422678   0.6304201288145348  0.16244863971994278          1.0000   
         H         H         1.0       0.6227722544174799  0.04170012447367433           0.18097987621872075          1.0000   
         H         H         1.0       0.5796309807427851  0.03527900390240357           0.20523615503647305          1.0000   
         C         C         1.0       0.3876856880192875  0.2244010229145048  0.2841997405822292 1.0000   
         C         C         1.0       0.3576840600104083  0.22210027386192666           0.31525029746309907          1.0000   
         H         H         1.0       0.4161769065729962  0.22322770619906862           0.2964919329604165 1.0000   
         H         H         1.0       0.39852979100782276           0.2581081283764617 0.2718927551574047 1.0000   
         H         H         1.0       0.3512047253723668  0.19051776104961116           0.3277478458037843 1.0000   
         H         H         1.0       0.3793365892589295  0.2496190138503258  0.3312280637656165 1.0000   
         C         C         1.0       0.4859912138943198  0.12996708449156102           0.36934789038065585          1.0000   
         C         C         1.0       0.4647769909399459  0.15228270926049903           0.395954127345181  1.0000   
         H         H         1.0       0.4989476573749162  0.15184813838646805           0.3451947791239329 1.0000   
         H         H         1.0       0.43213135018267973           0.5763634327263726 0.35145428750592056          1.0000   
         H         H         1.0       0.48880850215015953           0.18542802595448804          0.4022473411969309 1.0000   
         H         H         1.0       0.43584456167992114           0.1543473887889053 0.3839778390387671 1.0000   
         C         C         1.0       0.22535310378015233           0.735625987618229  0.5742089177818841 1.0000   
         C         C         1.0       0.18346523634741088           0.6993932015927294 0.5614522266478887 1.0000   
         H         H         1.0       0.22263786592832882           0.7350900620477197 0.6027598002608211 1.0000   
         H         H         1.0       0.25311935513142814           0.7300406197252968 0.5661814614474232 1.0000   
         H         H         1.0       0.15769129717478056           0.706546083906443  0.5706410764999547 1.0000   
         H         H         1.0       0.17600667860551034           0.6685344948844916 0.57589137444201   1.0000   
         C         C         1.0       0.1977952607778035  0.9689269720355823  0.38125571440916334          1.0000   
         C         C         1.0       0.2406918112194468  0.975674286664146   0.39790137181623353          1.0000   
         H         H         1.0       0.1763126620020018  0.9382584180896406  0.393534502519235  1.0000   
         H         H         1.0       0.19933695408708732           0.9619775701388977 0.3524637479683937 1.0000   
         H         H         1.0       0.2596290085283081  0.9630792290440974  0.3803861894550623 1.0000   
         H         H         1.0       0.2600672178910163  0.009296072980643943         0.39949035743359723          1.0000   
         C         C         1.0       0.29049627304971176           0.6690369014379319 0.5949363936009384 1.0000   
         C         C         1.0       0.2992023913089399  0.6659207243671535  0.5558379595546337 1.0000   
         H         H         1.0       0.28383082060255543           0.6365994264245733 0.606389033374857  1.0000   
         H         H         1.0       0.26157414264622575           0.6759463422738593 0.5987829057829539 1.0000   
         H         H         1.0       0.3194407843388768  0.6977185266400182  0.5438601610735857 1.0000   
         H         H         1.0       0.2670255985618835  0.6555741187065115  0.5422757741904485 1.0000   
         C         C         1.0       0.6867179386887294  0.8292098406416782  0.7683719598029514 1.0000   
         C         C         1.0       0.12331927396913696           0.866573422624414  0.6589624481154958 1.0000   
         H         H         1.0       0.7006874671304322  0.8652002882494472  0.7677243290075011 1.0000   
         H         H         1.0       0.6976587286681425  0.8161851533469763  0.7921346950224024 1.0000   
         H         H         1.0       0.728700947693212   0.8114428550866808  0.7364797902738701 1.0000   
         H         H         1.0       0.1396698269136195  0.8793073163802653  0.6838297562457607 1.0000   
         C         C         1.0       0.49984902696134903           0.02866730509564408          0.6467192838838826 1.0000   
         C         C         1.0       0.5057967274415228  0.9862509213174759  0.6406787620141018 1.0000   
         H         H         1.0       0.4868590167089408  0.02992633811233092           0.6748221228270207 1.0000   
         H         H         1.0       0.5316417680091813  0.05568238251676694           0.646669919558581  1.0000   
         H         H         1.0       0.5308536447603001  0.9829691519573268  0.6582477319698801 1.0000   
         H         H         1.0       0.5166459802509414  0.9851845535387903  0.6129410259935376 1.0000   
         C         C         1.0       0.35287334310126584           0.6158337734640265 0.858270742942593  1.0000   
         C         C         1.0       0.3561647253310818  0.6497081549937057  0.8308021404519835 1.0000   
         H         H         1.0       0.32441084365117356           0.5885876862428688 0.8539577121130129 1.0000   
         H         H         1.0       0.3502256986463264  0.6300284506811648  0.8835253578918855 1.0000   
         H         H         1.0       0.3286743430128587  0.6606321278732781  0.8328839035172396 1.0000   
         H         H         1.0       0.34960287496158643           0.6289793009027235 0.8047891874863138 1.0000   
         C         C         1.0       0.1798260046817602  0.7103518055251152  0.7259807804175237 1.0000   
         C         C         1.0       0.20753789690653532           0.7568886442670993 0.7371645888237991 1.0000   
         H         H         1.0       0.19967581249491714           0.6953605353022425 0.7105409912241796 1.0000   
         H         H         1.0       0.15767562288066103           0.712637280266823  0.7062113603357544 1.0000   
         H         H         1.0       0.2049013209498506  0.760404487527121   0.7660470038544305 1.0000   
         H         H         1.0       0.18969103964567244           0.7752600858795059 0.7268564666079468 1.0000   
         C         C         1.0       0.5985319941072024  0.9413346631814893  0.8972826737982625 1.0000   
         C         C         1.0       0.634143568959605   0.9780799925367026  0.8753249030831962 1.0000   
         H         H         1.0       0.6168501120986644  0.9269901624743994  0.9149719470205379 1.0000   
         H         H         1.0       0.5775792995608673  0.9509321752536543  0.917385546542293  1.0000   
         H         H         1.0       0.6450454828744007  0.9663084342527095  0.8511047244374728 1.0000   
         H         H         1.0       0.6636247356918952  0.9914932797253406  0.8890073166354795 1.0000   
         C         C         1.0       0.6092908694827686  0.9494564397635695  0.19692967788420468          1.0000   
         C         C         1.0       0.6255045423798246  0.9122557007569532  0.20962375181600046          1.0000   
         H         H         1.0       0.627260216825282   0.9810947044109639  0.20739698306072252          1.0000   
         H         H         1.0       0.5769136723927395  0.9477471458716372  0.2047326702128831 1.0000   
         H         H         1.0       0.16812477491175368           0.11743608985221599          0.08009686417655226          1.0000   
         H         H         1.0       0.6115590197106654  0.8838886800992194  0.19306735743170678          1.0000   
         C         C         1.0       0.4869957697066365  0.6634784039109732  0.9800957790543375 1.0000   
         C         C         1.0       0.515617211703017   0.6697196851522352  0.011630631706078809         1.0000   
         H         H         1.0       0.4586341210299128  0.6333445682017037  0.9851335572506834 1.0000   
         H         H         1.0       0.5023700644789266  0.6545363770963707  0.9575703080397345 1.0000   
         H         H         1.0       0.5433063596737411  0.6627027778095826  0.9987082532321806 1.0000   
         H         H         1.0       0.5328579026711263  0.7050068815001452  0.021821329315650173         1.0000   
         C         C         1.0       0.31103286613447234           0.8199402044594821 0.07814228282283953          1.0000   
         C         C         1.0       0.31890533093441087           0.8429299319528907 0.1151724358465116 1.0000   
         H         H         1.0       0.2869915534391273  0.8310579411546194  0.06467569242912807          1.0000   
         H         H         1.0       0.29344532431332737           0.7853228918474384 0.08255588993155794          1.0000   
         H         H         1.0       0.28873866912756907           0.8329893852488103 0.1304442603661764 1.0000   
         H         H         1.0       0.33451231899630546           0.8246793728865786 0.13185887839465948          1.0000   
         C         C         1.0       0.7280659940919408  0.9388443985323518  0.9105396489182783 1.0000   
         C         C         1.0       0.7365569016152357  0.9615369599732297  0.9469177571538239 1.0000   
         H         H         1.0       0.7604055565978495  0.950543446415637   0.8959487640832395 1.0000   
         H         H         1.0       0.7086750159412973  0.9541592079803589  0.8974575042146008 1.0000   
         H         H         1.0       0.7527899717266502  0.9973517864147428  0.9398052749862242 1.0000   
         H         H         1.0       0.7582036088899207  0.9482969282149499  0.9624967214049107 1.0000   
         C         C         1.0       0.33826774633269774           0.8653163201155177 0.8596830811779034 1.0000   
         C         C         1.0       0.36867098378259644           0.8416325098139845 0.8476469949132907 1.0000   
         H         H         1.0       0.33112140135833834           0.883422590171611  0.8380713356124798 1.0000   
         H         H         1.0       0.3556127965977059  0.8899040407409946  0.877973283907838  1.0000   
         H         H         1.0       0.3902475375967603  0.8641130712387793  0.8283408487107252 1.0000   
         H         H         1.0       0.3485436038659203  0.8136851276812437  0.8309329039712047 1.0000   
         C         C         1.0       0.6446574068269438  0.18370291368604796           0.07919382583812284          1.0000   
         C         C         1.0       0.6020446965032504  0.1412570489655982  0.07428086087173358          1.0000   
         H         H         1.0       0.6636413217390204  0.1749085901502896  0.10035088769579104          1.0000   
         H         H         1.0       0.6325098628537411  0.2069704594928794  0.09234714546171752          1.0000   
         H         H         1.0       0.5753986637135038  0.14880552191536234           0.0640042921309405 1.0000   
         H         H         1.0       0.5926778072666211  0.13287952756506827           0.10155703936799321          1.0000   
         C         C         1.0       0.21649962539997403           0.37453662513689495          0.06640601014221237          1.0000   
         C         C         1.0       0.20134828221211465           0.3925369318927661 0.0926197718070465 1.0000   
         C         C         1.0       0.18023996720430602           0.41955130250586425          0.0845416372352017 1.0000   
         C         C         1.0       0.18230911761026802           0.43434191275283723          0.0495080503781411 1.0000   
         C         C         1.0       0.19069177063540743           0.409930162570978  0.021809194332771398         1.0000   
         C         C         1.0       0.21068767486547313           0.38102442703568035          0.030560470560196062         1.0000   
         H         H         1.0       0.20544621557992992           0.3871752825918791 0.12126986692687525          1.0000   
         H         H         1.0       0.1706102545362358  0.43898680240262994           0.10313281216885994          1.0000   
         H         H         1.0       0.1856760155681132  0.4144884437692623  0.9938134886606458 1.0000   
         H         H         1.0       0.2235751108731472  0.36940793124732785           0.009464999983310518         1.0000   
         C         C         1.0       0.24401243061494493           0.5110461502217782 0.012465801435793677         1.0000   
         C         C         1.0       0.2003214730881142  0.5024187497133599  0.007457416560243679         1.0000   
         C         C         1.0       0.19060209266371397           0.5257679094383634 0.9814699916684464 1.0000   
         C         C         1.0       0.22256106040851953           0.5557124120625365 0.9611152834980561 1.0000   
         C         C         1.0       0.2647727695870641  0.5646092705147916  0.9672122621873306 1.0000   
         C         C         1.0       0.27513087717053963           0.5384511862362011 0.9908815566692186 1.0000   
         C         C         1.0       0.16826658796499183           0.4731022098557965 0.03773831179077236          1.0000   
         C         C         1.0       0.17406029339537699           0.5076615421866048 0.06798357102114938          1.0000   
         C         C         1.0       0.14351322883643425           0.5254465992506833 0.07105800087104353          1.0000   
         C         C         1.0       0.14345712819197542           0.5509928704824303 0.10074898866724413          1.0000   
         C         C         1.0       0.1774383667720283  0.5641825842505195  0.12329684247820993          1.0000   
         C         C         1.0       0.2119252847371509  0.5521329950082285  0.11651345984714401          1.0000   
         C         C         1.0       0.2091817145664321  0.5232232134325496  0.09037577864876045          1.0000   
         C         C         1.0       0.10200898663577718           0.4301106089392015 0.9964139441731765 1.0000   
         C         C         1.0       0.05981137971398853           0.40843965522735187          0.992900651066568  1.0000   
         C         C         1.0       0.033188415593224496          0.394449389493763  0.022373345916281373         1.0000   
         C         C         1.0       0.05100515447035825           0.406029807213501  0.05551721108565344          1.0000   
         C         C         1.0       0.09422630597850579           0.4252601480646671 0.05981925149664136          1.0000   
         C         C         1.0       0.11909691505229403           0.44234647565095825          0.030781168243828594         1.0000   
         C         C         1.0       0.9814991487282383  0.3766016336971827  0.018539234473021526         1.0000   
         C         C         1.0       0.9608944174294657  0.4846086914632642  0.9671510517812953 1.0000   
         C         C         1.0       0.9536570471099173  0.4476522543589893  0.9487251285582059 1.0000   
         C         C         1.0       0.9583539583836371  0.41242741780314107           0.9655480527193268 1.0000   
         C         C         1.0       0.9722932098110989  0.4141370497968993  0.9997696715986383 1.0000   
         C         C         1.0       0.9796524828644225  0.4534915186119311  0.0166919503016556 1.0000   
         C         C         1.0       0.9727939459739694  0.48755939643997    0.0011177027432278663        1.0000   
         C         C         1.0       0.9542176576365458  0.36082987378585185           0.05365395221265623          1.0000   
         C         C         1.0       0.9604063678558686  0.32973923137895506           0.07531741965027106          1.0000   
         C         C         1.0       0.9383695803641694  0.3172066500093359  0.10690441014433283          1.0000   
         C         C         1.0       0.9034308066005833  0.32763530258858903           0.11227875764053952          1.0000   
         C         C         1.0       0.8939364954035194  0.3552340238037708  0.0911453355105527 1.0000   
         C         C         1.0       0.9197194283629145  0.3716105212765481  0.06246250367370454          1.0000   
         C         C         1.0       0.9199690425598968  0.31486334456848203           0.988414522180528  1.0000   
         C         C         1.0       0.9019217038807198  0.2778925431663233  0.9705310902320304 1.0000   
         C         C         1.0       0.9262922945680254  0.25448878025301214           0.960397688002332  1.0000   
         C         C         1.0       0.970877315868075   0.2733426095231835  0.965659723044386  1.0000   
         C         C         1.0       0.9866813287915206  0.3108886929580553  0.9845619811435933 1.0000   
         C         C         1.0       0.9622065725814529  0.33255160702170516           0.9969208716047383 1.0000   
         H         H         1.0       0.2540922354513777  0.49474142414314376           0.03392648332545689          1.0000   
         H         H         1.0       0.1573714071652128  0.5211350577741712  0.9766547685962703 1.0000   
         H         H         1.0       0.2113337390471437  0.5695022981143089  0.9381902880448014 1.0000   
         H         H         1.0       0.30615257345404556           0.5376126886486949 0.9940455503730747 1.0000   
         H         H         1.0       0.11609800428098116           0.5147911219968175 0.05341777996122743          1.0000   
         H         H         1.0       0.1164164597867452  0.5624257472567097  0.1015585311147762 1.0000   
         H         H         1.0       0.2369105077791167  0.5615982514515675  0.13492946833079844          1.0000   
         H         H         1.0       0.23421777608030037           0.5120585641226589 0.08984823671008635          1.0000   
         H         H         1.0       0.12142387610761252           0.4387538048053439 0.9713612121653955 1.0000   
         H         H         1.0       0.0481840102355493  0.40077942269254824           0.9657812320302449 1.0000   
         H         H         1.0       0.029301583399508502          0.4003476980296396 0.07675832896368151          1.0000   
         H         H         1.0       0.10571645577550615           0.43919573266410106          0.08564895873032219          1.0000   
         H         H         1.0       0.9396448659501541  0.4469431960995938  0.9222863057358626 1.0000   
         H         H         1.0       0.9590654463547833  0.38804074846191067           0.9465766973969847 1.0000   
         H         H         1.0       0.9929199426650117  0.45858312348355224           0.04347909012107887          1.0000   
         H         H         1.0       0.97622355120815    0.514700471563213   0.01698769424193447          1.0000   
         H         H         1.0       0.9881684866798005  0.32181181080021254           0.07032872770617038          1.0000   
         H         H         1.0       0.9420098869125203  0.29592945427199696           0.1272459934662158 1.0000   
         H         H         1.0       0.8683322864658926  0.36690390551575375           0.09606422284072069          1.0000   
         H         H         1.0       0.9109712040518333  0.39227517629254094           0.046404381492211266         1.0000   
         H         H         1.0       0.8963766653136394  0.32996680645773613           0.9968732883560173 1.0000   
         H         H         1.0       0.8679075344827558  0.2673151810183108  0.9657398448533532 1.0000   
         H         H         1.0       0.9903311396324573  0.2574651068078996  0.9553401796263274 1.0000   
         H         H         1.0       0.01972142009651101           0.32337813498080237          0.9874773624450339 1.0000   
         C         C         1.0       0.897500913847017   0.13867303840957046           0.7981218112287846 1.0000   
         C         C         1.0       0.888308416872091   0.16873086563816875           0.8174878972242363 1.0000   
         C         C         1.0       0.9047122695092746  0.21277746278358242           0.8091870304619071 1.0000   
         C         C         1.0       0.9347993754186888  0.22915531754833784           0.7819018161963185 1.0000   
         C         C         1.0       0.9383055487830947  0.19787947699211764           0.7584154809162519 1.0000   
         C         C         1.0       0.9198290627680044  0.15448009616128636           0.7664129311375012 1.0000   
         H         H         1.0       0.8648461100547291  0.1586156769069855  0.8397726204531958 1.0000   
         H         H         1.0       0.8947780347436485  0.23359178386461474           0.8242854070713286 1.0000   
         H         H         1.0       0.9593145406157599  0.20593871339476544           0.7372347003817068 1.0000   
         H         H         1.0       0.924128234925702   0.13147706893559707           0.7478056318203594 1.0000   
         C         C         1.0       0.02926928639075599           0.2710400708088738 0.766563998447211  1.0000   
         C         C         1.0       0.002496612495569428          0.2905742575471703 0.7560688839097847 1.0000   
         C         C         1.0       0.01872877514972182           0.32457711300104347          0.731810534954835  1.0000   
         C         C         1.0       0.059180686928901105          0.3382765069084476 0.7188878503224174 1.0000   
         C         C         1.0       0.0856349061518491  0.3178630028754613  0.7295001829358521 1.0000   
         C         C         1.0       0.0711639536140587  0.2844300918574733  0.7536800199302562 1.0000   
         C         C         1.0       0.9560215579227956  0.2780565786380985  0.7719503841070928 1.0000   
         C         C         1.0       0.9665041504588261  0.3105689371563314  0.8053416314186088 1.0000   
         C         C         1.0       0.9634177875936336  0.35139346806401106           0.8054600436955404 1.0000   
         C         C         1.0       0.9729063734866081  0.3750244154390381  0.8359482375474866 1.0000   
         C         C         1.0       0.9893171321113523  0.36333845805805987           0.8650350169824612 1.0000   
         C         C         1.0       0.9917095747447172  0.3239590199690461  0.8658281395048387 1.0000   
         C         C         1.0       0.9819963017681879  0.29711221181240666           0.835686169259401  1.0000   
         C         C         1.0       0.926209694093181   0.2710812458043911  0.7076459185145186 1.0000   
         C         C         1.0       0.8979674140785192  0.27242089160911526           0.6828875418778894 1.0000   
         C         C         1.0       0.8639806922219893  0.2864874058130197  0.6910129903959508 1.0000   
         C         C         1.0       0.8595910409826857  0.2938626588435655  0.7266937545364511 1.0000   
         C         C         1.0       0.8880842853296324  0.29130137341161344           0.7522276301124752 1.0000   
         C         C         1.0       0.923356020643364   0.28282417358568096           0.742996777964357  1.0000   
         C         C         1.0       0.8338055573613952  0.2907075502866529  0.6620535391249224 1.0000   
         C         C         1.0       0.9102865793832206  0.4297223485053221  0.6600996732153414 1.0000   
         C         C         1.0       0.924279510372691   0.4017515763308898  0.6426681144997775 1.0000   
         C         C         1.0       0.8992995710616503  0.3596369281186019  0.6417886538936233 1.0000   
         C         C         1.0       0.859766978132474   0.3426856964084862  0.657631143442484  1.0000   
         C         C         1.0       0.8477169360841844  0.37295117468401956           0.676047117568298  1.0000   
         C         C         1.0       0.8725201804821429  0.41540863453446847           0.6771670481013575 1.0000   
         C         C         1.0       0.7851135900587135  0.27663578692979246           0.6706672917442081 1.0000   
         C         C         1.0       0.7614677173394716  0.24645681476394107           0.6948340241327556 1.0000   
         C         C         1.0       0.7189360458725874  0.23977684173953023           0.701133841718972  1.0000   
         C         C         1.0       0.6990031995710595  0.2600527629947383  0.6793916345470453 1.0000   
         C         C         1.0       0.7202859473432431  0.28867217805401074           0.6536551813694353 1.0000   
         C         C         1.0       0.7628141301847573  0.29761823576302326           0.6516795509649227 1.0000   
         C         C         1.0       0.8338662443201036  0.27965647547963757           0.5955800108539342 1.0000   
         C         C         1.0       0.8288734465986201  0.2553414674030265  0.5642162274089555 1.0000   
         C         C         1.0       0.8218428467671889  0.21180600738676092           0.5664281573298914 1.0000   
         C         C         1.0       0.8195484633362735  0.19200796751497526           0.5987088872487348 1.0000   
         C         C         1.0       0.8219257683056144  0.2167514703617781  0.6278643206289338 1.0000   
         C         C         1.0       0.8301217525535988  0.26074270561750995           0.6274640665358918 1.0000   
         H         H         1.0       0.02090028364368024           0.24357460680992132          0.7855486404308238 1.0000   
         H         H         1.0       0.9997919064426837  0.34338302224073425           0.7261338647537529 1.0000   
         H         H         1.0       0.06694676647597442           0.36417522717388107          0.6998189043791216 1.0000   
         H         H         1.0       0.09086684549779678           0.26680773275812286          0.7617704778476453 1.0000   
         H         H         1.0       0.949026456724639   0.3630597302888497  0.7828889733648241 1.0000   
         H         H         1.0       0.9737639005798115  0.40785979337067446           0.8354557095308421 1.0000   
         H         H         1.0       0.002085051691958828          0.3115522340017979 0.8893477425076921 1.0000   
         H         H         1.0       0.9874498873902852  0.2680084148245491  0.839827639389432  1.0000   
         H         H         1.0       0.9479656048723649  0.2588759392870676  0.6993418686997769 1.0000   
         H         H         1.0       0.9044255506374625  0.267258641895888   0.6558049185197128 1.0000   
         H         H         1.0       0.8322840738028026  0.30119968449232837           0.7350620644082987 1.0000   
         H         H         1.0       0.8832990286481     0.29513336022740216           0.7800417493180802 1.0000   
         H         H         1.0       0.9565665219174518  0.41016229563946804           0.6337471614076845 1.0000   
         H         H         1.0       0.9142417919471969  0.3376703130324775  0.6308238941178688 1.0000   
         H         H         1.0       0.8204104785055437  0.3610564630944729  0.6926220646811577 1.0000   
         H         H         1.0       0.8603519719416594  0.4395685293614942  0.6868322866343634 1.0000   
         H         H         1.0       0.7749154223303873  0.2295384969244071  0.712114205314242  1.0000   
         H         H         1.0       0.7007636352705416  0.21757170580058727           0.7229025901589715 1.0000   
         H         H         1.0       0.7055256092060769  0.305459236471068   0.637581974108933  1.0000   
         H         H         1.0       0.7816708695282399  0.32331468741639924           0.6361796222208841 1.0000   
         H         H         1.0       0.8425264159055978  0.3132129313025529  0.5922974732773209 1.0000   
         H         H         1.0       0.828299310071243   0.2698538754757931  0.5401310901221723 1.0000   
         H         H         1.0       0.8070580158415943  0.1574805112535762  0.5999874403921718 1.0000   
         H         H         1.0       0.8190990845555742  0.20106611458741566           0.6533405142141161 1.0000   
         C         C         1.0       0.6134437165754263  0.19013709808686743           0.7281907176444264 1.0000   
         C         C         1.0       0.61346820980953    0.21442328048819143           0.7576902786956625 1.0000   
         C         C         1.0       0.6108716194894861  0.19595650287162128           0.7915531519565081 1.0000   
         C         C         1.0       0.6109777374847458  0.15494977477397986           0.7952487715702122 1.0000   
         C         C         1.0       0.6084707188324073  0.13031889258833607           0.7648745031691669 1.0000   
         C         C         1.0       0.6122422605179973  0.14838988967066416           0.7314526917487403 1.0000   
         H         H         1.0       0.6151383572818274  0.2470959255349946  0.7553828670763574 1.0000   
         H         H         1.0       0.6139130161975775  0.21619037842517447           0.816022576946995  1.0000   
         H         H         1.0       0.565905272060144   0.570190225265785   0.8039706679175156 1.0000   
         H         H         1.0       0.6047136085996859  0.12533777174230942           0.709041238991975  1.0000   
         C         C         1.0       0.5054920640579086  0.5286186114466048  0.8530389497248386 1.0000   
         C         C         1.0       0.5208743488115225  0.5695828241875561  0.8674079092165801 1.0000   
         C         C         1.0       0.06049688028013023           0.538955804385871  0.887175406994934  1.0000   
         C         C         1.0       0.05754123980472459           0.49695667541856603          0.8955780623525214 1.0000   
         C         C         1.0       0.06436114673014437           0.4726988698815193 0.8693035450591128 1.0000   
         C         C         1.0       0.5063723066112041  0.4938507456921006  0.8734023835204313 1.0000   
         C         C         1.0       0.522304197784544   0.611358855955769   0.8452822302578951 1.0000   
         C         C         1.0       0.04991550646490195           0.11448496570097233          0.8363443950625069 1.0000   
         C         C         1.0       0.026636129562295663          0.1085454560682828 0.8681366457450255 1.0000   
         C         C         1.0       0.9831283220629561  0.09848592189602434           0.868777547050898  1.0000   
         C         C         1.0       0.9630497630167001  0.0948181784600539  0.8374593808503001 1.0000   
         C         C         1.0       0.9827155177704624  0.09733589779562313           0.8058798119478262 1.0000   
         C         C         1.0       0.026384544342788585          0.10777921249582967          0.8058681163281575 1.0000   
         C         C         1.0       0.6006981815469942  0.646121611484915   0.8583251529334366 1.0000   
         C         C         1.0       0.6359414396384456  0.6779198816644915  0.8691079722628738 1.0000   
         C         C         1.0       0.6953281486980352  0.21263860255684058           0.9114104886132265 1.0000   
         C         C         1.0       0.7003206759930333  0.22552744679952968           0.8771160134381458 1.0000   
         C         C         1.0       0.6727688397764596  0.19923241698230473           0.8529312604294348 1.0000   
         C         C         1.0       0.634967556205689   0.16651181887375083           0.8629909629174428 1.0000   
         C         C         1.0       0.7281473296421628  0.23829229639589142           0.9414480437867608 1.0000   
         C         C         1.0       0.29893733891392626           0.673797533890193  0.9592851268766603 1.0000   
         C         C         1.0       0.29304587440271    0.6886325616618384  0.9266962295182101 1.0000   
         C         C         1.0       0.6469573137298124  0.7391634664229367  0.9661484600819109 1.0000   
         C         C         1.0       0.24262725862309953           0.7157316536977328 0.9503580367194332 1.0000   
         C         C         1.0       0.2497030549022572  0.706780582217498   0.9834681898015734 1.0000   
         C         C         1.0       0.2789702833602594  0.6846544421985998  0.9890384076055602 1.0000   
         C         C         1.0       0.2232471730702157  0.23583505236687907           0.9770564116449383 1.0000   
         C         C         1.0       0.1863802220219697  0.23085040691384695           0.9983745087595267 1.0000   
         C         C         1.0       0.18938803801757964           0.2536283587915057 0.030042954306151115         1.0000   
         C         C         1.0       0.22743684655427376           0.28277932031582903          0.04150841917229986          1.0000   
         C         C         1.0       0.2643980072545351  0.29117377187958776           0.020508811807807392         1.0000   
         C         C         1.0       0.778277486916346   0.31771345153877073           0.9592958909071734 1.0000   
         C         C         1.0       0.7992651407318612  0.2509005839236177  0.906212027441913  1.0000   
         C         C         1.0       0.8348620980686102  0.24252610958897391           0.8989600096080228 1.0000   
         C         C         1.0       0.8398151100494519  0.206732861172518   0.9137690447952196 1.0000   
         C         C         1.0       0.806332031199272   0.17746642654519632           0.932281979208731  1.0000   
         C         C         1.0       0.7719554193205099  0.1868072519045685  0.9400534250458104 1.0000   
         C         C         1.0       0.7680636205993318  0.22427770066553482           0.9288361430699545 1.0000   
         H         H         1.0       0.4919239500863125  0.5197001745331127  0.8273233954046746 1.0000   
         H         H         1.0       0.05559413701096694           0.5574176715777192 0.9088271790248014 1.0000   
         H         H         1.0       0.04595122925842143           0.48373338321710363          0.9201255537785693 1.0000   
         H         H         1.0       0.5019356405254835  0.4625413516306154  0.8606576868091182 1.0000   
         H         H         1.0       0.04038822850254431           0.10902226488804989          0.8932963787364874 1.0000   
         H         H         1.0       0.9682023517337205  0.09612256411086671           0.8960032338630283 1.0000   
         H         H         1.0       0.9641100442262736  0.09298478441484102           0.7808680577337221 1.0000   
         H         H         1.0       0.03931987453018215           0.11036250082558019          0.7791808438927751 1.0000   
         H         H         1.0       0.6017235197361597  0.6139646292551268  0.8506585303425664 1.0000   
         H         H         1.0       0.6635632559151569  0.6690984319107198  0.8696697793195238 1.0000   
         H         H         1.0       0.7230469421248605  0.25783089595522307           0.8705166397401364 1.0000   
         H         H         1.0       0.6807783997226059  0.21222017424847217           0.8260038764272042 1.0000   
         H         H         1.0       0.3036089570403122  0.6764451938736078  0.9022003635869661 1.0000   
         H         H         1.0       0.6420935849784748  0.7682080319171353  0.963207765227847  1.0000   
         H         H         1.0       0.23309633081497827           0.7124909012983797 0.006037221420435612         1.0000   
         H         H         1.0       0.2837616786361057  0.6727285435108673  0.01492328045857283          1.0000   
         H         H         1.0       0.15944982504320437           0.20370077762822214          0.9910353790885822 1.0000   
         H         H         1.0       0.16153931804507504           0.2445145461206288 0.04510993419357345          1.0000   
         H         H         1.0       0.2966187645323721  0.3114223477418683  0.03145199501867402          1.0000   
         H         H         1.0       0.798076635889181   0.30469534402247866           0.9749223766376272 1.0000   
         H         H         1.0       0.7977991353152911  0.2808892931016828  0.895532251929056  1.0000   
         H         H         1.0       0.8608978217777936  0.26435053797527097           0.8832053107032528 1.0000   
         H         H         1.0       0.8065438636708762  0.15026626683380245           0.9483335508310711 1.0000   
         H         H         1.0       0.7607161846380187  0.7510556827556973  0.9285810504639364 1.0000   
         C         C         1.0       0.9134071691119293  0.497675156175382   0.5929434846198809 1.0000   
         C         C         1.0       0.893387707422753   0.527086850714167   0.5980562358551733 1.0000   
         C         C         1.0       0.8708744221187679  0.5334632819685761  0.5693893874781818 1.0000   
         C         C         1.0       0.8672964963350662  0.5140391129363396  0.5371242045894042 1.0000   
         C         C         1.0       0.8830047724831152  0.4805277952089297  0.535976775908526  1.0000   
         C         C         1.0       0.9075128690682572  0.47272366621450734           0.5625391631778769 1.0000   
         H         H         1.0       0.9008143708093324  0.5486071155598575  0.6202157780712437 1.0000   
         H         H         1.0       0.8591210991479572  0.5602048612909561  0.5737297314599065 1.0000   
         H         H         1.0       0.8769443628848158  0.46232178969850646           0.5123810841060635 1.0000   
         H         H         1.0       0.9175634588960747  0.4451402900893586  0.5601341720997438 1.0000   
         C         C         1.0       0.9092056147715533  0.5443826160726674  0.46625040933671424          1.0000   
         C         C         1.0       0.8653120353262379  0.5216418767672627  0.46998469871047915          1.0000   
         C         C         1.0       0.84439782663       0.49958323705908475           0.440048623063928  1.0000   
         C         C         1.0       0.866627020248458   0.4976863279671926  0.4098068314947955 1.0000   
         C         C         1.0       0.9100130416192797  0.5202981276555898  0.40644019594948416          1.0000   
         C         C         1.0       0.9312964098888155  0.5416771696586282  0.43609567665048077          1.0000   
         C         C         1.0       0.8410424531072713  0.5232394021038136  0.5055103634085459 1.0000   
         C         C         1.0       0.8402404241984984  0.5711309999266592  0.5007985357394736 1.0000   
         C         C         1.0       0.810732568408808   0.5746526483331457  0.47746616778234446          1.0000   
         C         C         1.0       0.803723250874331   0.6115845339613603  0.4715653432218084 1.0000   
         C         C         1.0       0.8302501028413164  0.6494995071008046  0.48804295804352343          1.0000   
         C         C         1.0       0.8636929624679729  0.64569535701803    0.5091816552604109 1.0000   
         C         C         1.0       0.8690266337018822  0.6074846910557701  0.5157394282162681 1.0000   
         C         C         1.0       0.7813379753613626  0.44856002585412247           0.5038293085508867 1.0000   
         C         C         1.0       0.7438927206099991  0.4175112679795751  0.5153708261314793 1.0000   
         C         C         1.0       0.724870788738034   0.4245640530837184  0.5455870009260829 1.0000   
         C         C         1.0       0.7372788898816834  0.4668099267699933  0.5592077832695286 1.0000   
         C         C         1.0       0.773036413232825   0.4993927457308493  0.5445907748284418 1.0000   
         C         C         1.0       0.7955627471146257  0.4905193820558566  0.5165146834524724 1.0000   
         C         C         1.0       0.6937921875675481  0.38337495544755823           0.567207611794488  1.0000   
         C         C         1.0       0.571335279517148   0.3877488855861189  0.5359540228808825 1.0000   
         C         C         1.0       0.5879577855973305  0.3633612767418003  0.5163865400423919 1.0000   
         C         C         1.0       0.6276520304310641  0.36297543877666194           0.5261204689695806 1.0000   
         C         C         1.0       0.6493521841050484  0.38479836264610034           0.5557015714898504 1.0000   
         C         C         1.0       0.6320240656405512  0.41240292107336574           0.572385677037454  1.0000   
         C         C         1.0       0.5923168585311012  0.4106564750858684  0.5636671446402151 1.0000   
         C         C         1.0       0.7021721205633081  0.3888942827841847  0.6100974229358246 1.0000   
         C         C         1.0       0.7443288947561089  0.410526985870215   0.6230130856221876 1.0000   
         C         C         1.0       0.7529832116969418  0.40991648435828043           0.6585920760985341 1.0000   
         C         C         1.0       0.7201209567346017  0.3868120319221621  0.6825842541901428 1.0000   
         C         C         1.0       0.6787136972639369  0.3689266998640524  0.6689424664825684 1.0000   
         C         C         1.0       0.671383896607728   0.3702568496308307  0.6342612310516998 1.0000   
         C         C         1.0       0.66136840952484    0.2994095240878678  0.573026749629143  1.0000   
         C         C         1.0       0.6629898422723832  0.2587593541896271  0.5719755013279186 1.0000   
         C         C         1.0       0.7016243390224196  0.2542582919119924  0.5631396606774444 1.0000   
         C         C         1.0       0.736196977072305   0.29017709815391274           0.5555563049488509 1.0000   
         C         C         1.0       0.7338606606194686  0.3300815826345665  0.5556229266782469 1.0000   
         C         C         1.0       0.6962004562604235  0.33516142735144366           0.5635490632653177 1.0000   
         H         H         1.0       0.9278152010346933  0.5670862829903821  0.48419045456101284          1.0000   
         H         H         1.0       0.8097284077676259  0.4850562682027673  0.439720608225465  1.0000   
         H         H         1.0       0.8476442387665069  0.4817190296154682  0.388218577836395  1.0000   
         H         H         1.0       0.964596077572186   0.5562487126284736  0.43795701407500365          1.0000   
         H         H         1.0       0.7886729822295011  0.546242548801244   0.46286405106420403          1.0000   
         H         H         1.0       0.777053329888605   0.6119916333473147  0.45551470458584153          1.0000   
         H         H         1.0       0.8866915246900918  0.6747903508172569  0.5166837887852511 1.0000   
         H         H         1.0       0.8953334265511836  0.6104284416395264  0.534546217272949  1.0000   
         H         H         1.0       0.7966031297455866  0.43723455402804906           0.4823202253060626 1.0000   
         H         H         1.0       0.7363796416740074  0.3859161669166967  0.5055294985484622 1.0000   
         H         H         1.0       0.7223253569732184  0.47102225777252044           0.5850622415747593 1.0000   
         H         H         1.0       0.7875061796475533  0.5324679659853616  0.5574676482133226 1.0000   
         H         H         1.0       0.5727063610217243  0.3442164699044585  0.4937295518025281 1.0000   
         H         H         1.0       0.6423084526091989  0.34366527938766106           0.5103437465038629 1.0000   
         H         H         1.0       0.646438182388749   0.4297149701926804  0.5967402842983678 1.0000   
         H         H         1.0       0.5777953864301486  0.42995343790843704           0.577540274131587  1.0000   
         H         H         1.0       0.7714506470591962  0.42530876760829867           0.6055533354309621 1.0000   
         H         H         1.0       0.7873230652464033  0.4195151472328849  0.6684140788412632 1.0000   
         H         H         1.0       0.10883652493833718           0.2990212489667803 0.6171057370615081 1.0000   
         H         H         1.0       0.6381215784943605  0.35184655670438464           0.6261650389023391 1.0000   
         H         H         1.0       0.6309765845092498  0.2995681121963903  0.5808051986990524 1.0000   
         H         H         1.0       0.6339049809315631  0.22946667689985412           0.5772488287698144 1.0000   
         H         H         1.0       0.7673183555287041  0.2899176911867594  0.5517747762994035 1.0000   
         H         H         1.0       0.763509326552747   0.359948461353125   0.5521088158920998 1.0000   
         C         C         1.0       0.9090368806023515  0.5482575044917076  0.990231452658506  1.0000   
         C         C         1.0       0.8896395417195293  0.5200231871624946  0.01719363854661382          1.0000   
         C         C         1.0       0.8819996586764418  0.5335825626485331  0.050627951491862166         1.0000   
         C         C         1.0       0.8952650335491709  0.579311387220221   0.05522982195453973          1.0000   
         C         C         1.0       0.9125336365830488  0.6077959666615215  0.026839504733438435         1.0000   
         C         C         1.0       0.9152401835094306  0.5910683443140677  0.9950996972436522 1.0000   
         H         H         1.0       0.8809547681716932  0.48684719501769963           0.009608657158890033         1.0000   
         H         H         1.0       0.86950328329656    0.5088855138486644  0.07002193497540299          1.0000   
         H         H         1.0       0.9235985597814281  0.6425394572272265  0.02757191666434644          1.0000   
         H         H         1.0       0.9324266643521157  0.6141384428217946  0.974622073378935  1.0000   
         C         C         1.0       0.8800918981165716  0.6751652181318074  0.08638759933359719          1.0000   
         C         C         1.0       0.8635509091489703  0.6304648029872985  0.08187078371240752          1.0000   
         C         C         1.0       0.8228973292637067  0.6137492610445465  0.06718137709691253          1.0000   
         C         C         1.0       0.7979526554115306  0.6371075554073715  0.0611558394186722 1.0000   
         C         C         1.0       0.8172772231490973  0.6812343317222466  0.06184631195588097          1.0000   
         C         C         1.0       0.857001273235796   0.7005540500552802  0.0775848147893532 1.0000   
         C         C         1.0       0.8912197294923568  0.6015864465861788  0.09101581110119007          1.0000   
         C         C         1.0       0.9362372100440132  0.6273665599840211  0.10960595596208102          1.0000   
         C         C         1.0       0.9370388100484563  0.6460109801656709  0.14243552063566955          1.0000   
         C         C         1.0       0.9737049215694246  0.6660076471039666  0.159876740716463  1.0000   
         C         C         1.0       0.010816400867787346          0.6700677378097911 0.14392507284408906          1.0000   
         C         C         1.0       0.012338276191880215          0.6510183161851711 0.11245971953914191          1.0000   
         C         C         1.0       0.9755773282032159  0.6294008246109559  0.09502514145473784          1.0000   
         C         C         1.0       0.8245315090115699  0.5540524619842288  0.13353542320469436          1.0000   
         C         C         1.0       0.8065403529325047  0.527102452364873   0.16045007869616348          1.0000   
         C         C         1.0       0.8319904564941972  0.5101405321368615  0.17954755778626597          1.0000   
         C         C         1.0       0.8699407975646068  0.5101483248088627  0.16426518642238583          1.0000   
         C         C         1.0       0.8898374530546757  0.5395451573728927  0.1375610392200637 1.0000   
         C         C         1.0       0.8661089829736853  0.5620062052030887  0.12017122203889175          1.0000   
         C         C         1.0       0.8205022199767885  0.49700343804420394           0.21933196611786196          1.0000   
         C         C         1.0       0.8894078302378553  0.6108029864422002  0.28511316458749725          1.0000   
         C         C         1.0       0.8551259820144124  0.6081958533425286  0.26526557630286657          1.0000   
         C         C         1.0       0.8381887559371518  0.5759153119995991  0.24185642553476736          1.0000   
         C         C         1.0       0.8495580836237239  0.5409384604741353  0.23979545193876242          1.0000   
         C         C         1.0       0.8873531784619365  0.5459490123503141  0.2545168513298308 1.0000   
         C         C         1.0       0.9066153898646758  0.5793024574607958  0.2770920760421305 1.0000   
         C         C         1.0       0.8299049731044396  0.45766130739236066           0.23678804330044045          1.0000   
         C         C         1.0       0.8326930836715599  0.42402367658624224           0.21462149984464907          1.0000   
         C         C         1.0       0.8270745555810411  0.3836877523844994  0.23055895986074226          1.0000   
         C         C         1.0       0.8169719235726354  0.3779773731199329  0.265785225283696  1.0000   
         C         C         1.0       0.8177151888800553  0.41086294496628384           0.28709240955853754          1.0000   
         C         C         1.0       0.8261998360379467  0.4510053311374083  0.27286673732550837          1.0000   
         C         C         1.0       0.7477741365062177  0.4925257523218747  0.2500341091132015 1.0000   
         C         C         1.0       0.7030512916143229  0.47250056004584345           0.25153032455233043          1.0000   
         C         C         1.0       0.6810507892563794  0.4389268952108517  0.22944417774149437          1.0000   
         C         C         1.0       0.7032461390192979  0.42513554176209    0.2042433980054396 1.0000   
         C         C         1.0       0.7461293506980794  0.4423278667514589  0.2032255070052993 1.0000   
         C         C         1.0       0.7689495019476156  0.47599650498814844           0.2252710644317676 1.0000   
         H         H         1.0       0.911820584411451   0.6922067500535861  0.09364841308828376          1.0000   
         H         H         1.0       0.8051561826944341  0.5777026388353992  0.06586240944701638          1.0000   
         H         H         1.0       0.7654158097509861  0.6229599575749787  0.05214291165033136          1.0000   
         H         H         1.0       0.871750137639586   0.7343334705381382  0.08296375520072008          1.0000   
         H         H         1.0       0.9068624570258627  0.6455319117321207  0.15538850298890527          1.0000   
         H         H         1.0       0.9698381520074434  0.6781684210901114  0.18622332940714026          1.0000   
         H         H         1.0       0.04078382895396748           0.6470124293323043 0.1035963491032279 1.0000   
         H         H         1.0       0.9790642193481368  0.616816110622988   0.07003789548237571          1.0000   
         H         H         1.0       0.8042851895762583  0.5700513999125488  0.12291173057536532          1.0000   
         H         H         1.0       0.7772802640554081  0.5249744329187864  0.16842515632427585          1.0000   
         H         H         1.0       0.8871009116181439  0.49511754116246487           0.18181423513609415          1.0000   
         H         H         1.0       0.9232033975296775  0.5470754610766656  0.13037908504841522          1.0000   
         H         H         1.0       0.8364235858601909  0.6273450785721726  0.27111253644163547          1.0000   
         H         H         1.0       0.8122295391004648  0.5789515789775448  0.22691396834049374          1.0000   
         H         H         1.0       0.9012617516350082  0.5211664904357048  0.24932998026298375          1.0000   
         H         H         1.0       0.9340305510264196  0.5795375777521025  0.28950346424528794          1.0000   
         H         H         1.0       0.8389146501271381  0.427267378166758   0.18693025016852646          1.0000   
         H         H         1.0       0.8294430471770861  0.35567295372852487           0.21483366180148683          1.0000   
         H         H         1.0       0.809573980161075   0.408043732095188   0.3146577690944988 1.0000   
         H         H         1.0       0.8255014870726884  0.4746923842641885  0.2924839406966124 1.0000   
         H         H         1.0       0.7662032969387024  0.5146915496201802  0.270025921600242  1.0000   
         H         H         1.0       0.21574569204242477           0.6203352353558094 0.2405240818381061 1.0000   
         H         H         1.0       0.6879383987244465  0.3999801068246909  0.18578593155856882          1.0000   
         H         H         1.0       0.7607274903340507  0.4332371309993069  0.18216238742561972          1.0000   
         C         C         1.0       0.012663633924643536          0.5809289682763744 0.377301358863826  1.0000   
         C         C         1.0       0.003404218161928263          0.08096166816304584          0.4082157041136652 1.0000   
         C         C         1.0       0.04613263039371884           0.09721210787741374          0.41255682069265986          1.0000   
         C         C         1.0       0.07248758331408878           0.08125634848263408          0.39479087877030417          1.0000   
         C         C         1.0       0.0795372702390229  0.5756063506104845  0.3859147461781112 1.0000   
         C         C         1.0       0.03958403343554484           0.5593170194314793 0.37067533430689   1.0000   
         H         H         1.0       0.984131027008946   0.09187087260665727           0.42561798323705613          1.0000   
         H         H         1.0       0.058823080798177774          0.1275902440345409 0.4299986141279209 1.0000   
         H         H         1.0       0.09946761522200154           0.5580397524673407 0.3777547870514052 1.0000   
         H         H         1.0       0.03448719215758578           0.5317103893354884 0.35511497289221006          1.0000   
         C         C         1.0       0.5314432711355795  0.5005594717054132  0.46282477817575746          1.0000   
         C         C         1.0       0.14611439356620948           0.06904228369535348          0.39474151286345044          1.0000   
         C         C         1.0       0.5965455513925804  0.4936930997182837  0.45083405628826256          1.0000   
         C         C         1.0       0.5788943341754714  0.4503267454145077  0.4619206544216844 1.0000   
         C         C         1.0       0.5364930479823984  0.43290148831766145           0.4718898383094573 1.0000   
         C         C         1.0       0.5119741917946342  0.4581562166634954  0.473252098347124  1.0000   
         C         C         1.0       0.12368545795032349           0.10361912802059646          0.39809970271783846          1.0000   
         C         C         1.0       0.6251151295587823  0.1033514413544101  0.48658561597793687          1.0000   
         C         C         1.0       0.660760465096501   0.09897677540584482           0.5045941796554091 1.0000   
         C         C         1.0       0.6733250514723366  0.11592546697722095           0.5374713430664216 1.0000   
         C         C         1.0       0.6532415397250386  0.1433486533102792  0.5510157057914373 1.0000   
         C         C         1.0       0.6200159087511883  0.1496286504360593  0.5353074121770935 1.0000   
         C         C         1.0       0.11895850700433064           0.1086762707285913 0.4690465437075523 1.0000   
         C         C         1.0       0.13834846219819608           0.13185731700664305          0.3341769927488142 1.0000   
         C         C         1.0       0.1536456396825916  0.1612654227484148  0.306321893095731  1.0000   
         C         C         1.0       0.17079758957034863           0.20644204716001407          0.31468967039077783          1.0000   
         C         C         1.0       0.16674757657095252           0.216021168748882  0.3489226178396006 1.0000   
         C         C         1.0       0.1522169528938786  0.18495920423566786           0.376284633072228  1.0000   
         C         C         1.0       0.13797208827387353           0.14199215439381072          0.3687103876813831 1.0000   
         C         C         1.0       0.19488636249822888           0.2424653802246011 0.2863980416604098 1.0000   
         C         C         1.0       0.8304938842071495  0.6104286527720626  0.3512536359212727 1.0000   
         C         C         1.0       0.3017767899047057  0.7328916563868564  0.27889077526341355          1.0000   
         C         C         1.0       0.260273390576399   0.72630640951149    0.27282896453543626          1.0000   
         C         C         1.0       0.24159767890644246           0.24076107550300566          0.2930211717568197 1.0000   
         C         C         1.0       0.7919728262814448  0.1374346661806516  0.34765595181563647          1.0000   
         C         C         1.0       0.8279129556106994  0.13124636282806068           0.3540710233056877 1.0000   
         C         C         1.0       0.1974844676190317  0.2903656864997453  0.29189356530311855          1.0000   
         C         C         1.0       0.1646341437771346  0.29625041604268537           0.31051487264600636          1.0000   
         C         C         1.0       0.16628734169821735           0.33555524438704837          0.3205068802458837 1.0000   
         C         C         1.0       0.19780626056301287           0.3718058501951799 0.3064577782805102 1.0000   
         C         C         1.0       0.22617401205693977           0.36722509996854874          0.2822857774695161 1.0000   
         C         C         1.0       0.2249823216788931  0.3265386912160679  0.2746533565009554 1.0000   
         C         C         1.0       0.19450125048934663           0.23937191823472273          0.2164918253412118 1.0000   
         C         C         1.0       0.17238538216459087           0.2312625630477086 0.185318430874283  1.0000   
         C         C         1.0       0.11454270787874288           0.6892051523728614 0.19831819076677515          1.0000   
         C         C         1.0       0.10613151947471566           0.20804185443654385          0.21561910665084733          1.0000   
         C         C         1.0       0.12652191619875275           0.21741468664609453          0.24757541403495917          1.0000   
         C         C         1.0       0.17140709184431224           0.23303637940036334          0.24889529062328186          1.0000   
         H         H         1.0       0.5296458274879877  0.03790272881325296           0.48327941358671067          1.0000   
         H         H         1.0       0.22098546899392524           0.6280095124976284 0.3897278451242603 1.0000   
         H         H         1.0       0.5980023195037361  0.43153293315087954           0.46305854050801193          1.0000   
         H         H         1.0       0.47795645490898786           0.44405018507773886          0.4805551866849617 1.0000   
         H         H         1.0       0.6769528027969947  0.08295662007451954           0.4880507347645652 1.0000   
         H         H         1.0       0.7026150914222318  0.11389278433092008           0.5488638144168796 1.0000   
         H         H         1.0       0.605181768090791   0.17337826835127995           0.5441586285815015 1.0000   
         H         H         1.0       0.0864140164182794  0.086793069641111   0.4690296583872626 1.0000   
         H         H         1.0       0.1580701251572485  0.6161104569707698  0.34845714068906153          1.0000   
         H         H         1.0       0.1795632815492718  0.6609203664106225  0.2980749654795022 1.0000   
         H         H         1.0       0.7271564495267493  0.17126394286115743           0.3860482413025391 1.0000   
         H         H         1.0       0.6871301966370383  0.15170346665257695           0.4403882540098627 1.0000   
         H         H         1.0       0.31340463248011075           0.7097819546877187 0.270257990789857  1.0000   
         H         H         1.0       0.2411887795545815  0.6977362386927839  0.2598161783190356 1.0000   
         H         H         1.0       0.7939304933768276  0.16884768551597074           0.3578968340731764 1.0000   
         H         H         1.0       0.8568170631153674  0.15824865800259122           0.35906962814506543          1.0000   
         H         H         1.0       0.13731843602815275           0.26680390019155187          0.31872624680944384          1.0000   
         H         H         1.0       0.14348514811770396           0.33957563919977674          0.33949504505168665          1.0000   
         H         H         1.0       0.2522754191461729  0.39406349869749285           0.2700339332218951 1.0000   
         H         H         1.0       0.2473115884829542  0.3244612744785291  0.25620652325082177          1.0000   
         H         H         1.0       0.2291438691365737  0.25422569955701224           0.2144698444812939 1.0000   
         H         H         1.0       0.16670102432344258           0.7224818274883036 0.16639850701633604          1.0000   
         H         H         1.0       0.07087732184995166           0.19547814442487255          0.21523526879554605          1.0000   
         H         H         1.0       0.10838544198533229           0.20872847214799647          0.2732706233486491 1.0000   
         C         C         1.0       0.2054035714437037  0.41792490334400506           0.32197812058191166          1.0000   
         C         C         1.0       0.8110421377004158  0.3332506064845811  0.2819998324409652 1.0000   
         H         H         1.0       0.7684525966946772  0.29146207865392115           0.2393435583191877 1.0000   
         H         H         1.0       0.1819880079624876  0.41614456886269047           0.34351759030741535          1.0000   
         H         H         1.0       0.8072169711362497  0.33932685427155934           0.3101611434652012 1.0000   
         H         H         1.0       0.8410532178740984  0.32693390010031403           0.281027195622589  1.0000   
         C         C         1.0       0.053563389807733675          0.6990848665402736 0.1617130753816919 1.0000   
         C         C         1.0       0.08622121261572935           0.6747042347455073 0.1675331928483492 1.0000   
         H         H         1.0       0.08765239314519513           0.25066603305306967          0.11656080247967539          1.0000   
         H         H         1.0       0.07116174542473752           0.2529045541123639 0.1622537310957083 1.0000   
         H         H         1.0       0.10376110127167815           0.6770303025748534 0.14250489714849857          1.0000   
         H         H         1.0       0.06831415211016578           0.6403807283316553 0.16969911757107162          1.0000   
         C         C         1.0       0.9019983158864149  0.6370172287615681  0.31764992095621186          1.0000   
         C         C         1.0       0.8752151070592661  0.610584667749421   0.3510507983686291 1.0000   
         H         H         1.0       0.9355400151417994  0.6459365026365012  0.32319262991198483          1.0000   
         H         H         1.0       0.8969775016644235  0.6681660325575715  0.31422338274600714          1.0000   
         H         H         1.0       0.8766070519281147  0.5771138978160346  0.3497553291834835 1.0000   
         H         H         1.0       0.8923521190656443  0.6266740915340061  0.3758384180694874 1.0000   
         C         C         1.0       0.9668993538055151  0.5636787697934071  0.360741737405799  1.0000   
         C         C         1.0       0.9353450221602883  0.5169425562571167  0.3732838835406508 1.0000   
         H         H         1.0       0.9524635363634422  0.5880919737625081  0.36170395740115063          1.0000   
         H         H         1.0       0.9439153852160166  0.03862627341097102           0.34190974546427955          1.0000   
         H         H         1.0       0.9139218768500659  0.5004941093348387  0.3510161215341352 1.0000   
         H         H         1.0       0.9567012198814959  0.4969825102152735  0.3800050868513694 1.0000   
         C         C         1.0       0.7094969798743449  0.21381964479806753           0.5746567533081123 1.0000   
         C         C         1.0       0.6730692977457714  0.16998996665706287           0.5837818261941141 1.0000   
         H         H         1.0       0.7284507617505678  0.22281992546619847           0.5999796311188563 1.0000   
         H         H         1.0       0.7297877471894342  0.20704780733027298           0.5542142007491757 1.0000   
         H         H         1.0       0.6468742003727893  0.1737460568690376  0.6006484291814069 1.0000   
         H         H         1.0       0.6863410550323431  0.150128527608983   0.6009748310927551 1.0000   
         C         C         1.0       0.5141245862173468  0.3858665991117314  0.487571175906651  1.0000   
         C         C         1.0       0.5264969610590806  0.3852552875033675  0.5268560069433308 1.0000   
         H         H         1.0       0.478109494293002   0.37609723485665575           0.48513458386629926          1.0000   
         H         H         1.0       0.524873923588865   0.3652990741753634  0.47130025558419614          1.0000   
         H         H         1.0       0.5226188145659988  0.4143268468020808  0.537441872741172  1.0000   
         H         H         1.0       0.5022498470832237  0.35917407491138553           0.5418951800716364 1.0000   
         C         C         1.0       0.809357884420777   0.18536614984330593           0.5336567797318708 1.0000   
         C         C         1.0       0.8436170521154098  0.17462368082184954           0.5136430147148573 1.0000   
         H         H         1.0       0.7813841239504592  0.15376269680231228           0.5413492174789111 1.0000   
         H         H         1.0       0.7959610304725674  0.20011290030892034           0.5140814265539768 1.0000   
         H         H         1.0       0.8770123568525592  0.1987574674565244  0.520415994421289  1.0000   
         H         H         1.0       0.8409537632132539  0.18529121084068575           0.485938304380969  1.0000   
         C         C         1.0       0.12909923046132543           0.3311887526726154 0.7143695279488346 1.0000   
         C         C         1.0       0.7301263813215614  0.37330680010577144           0.7189042211088947 1.0000   
         H         H         1.0       0.13995072781865536           0.3643519928863745 0.7052991783363111 1.0000   
         H         H         1.0       0.15146539507159051           0.33373809800604626          0.7352678378787199 1.0000   
         H         H         1.0       0.14288100091752387           0.27765510354151485          0.6993275971309749 1.0000   
         H         H         1.0       0.7089954340769091  0.3389564632410953  0.7229927082692373 1.0000   
         C         C         1.0       0.9493216949213743  0.4981278728167765  0.6203309527970615 1.0000   
         C         C         1.0       0.9340420181909904  0.4790359883565566  0.6576518135993086 1.0000   
         H         H         1.0       0.9704636473359305  0.5321233597770542  0.6248958635707701 1.0000   
         H         H         1.0       0.9678261847907335  0.4817801777543188  0.6080502803746102 1.0000   
         H         H         1.0       0.9122083023596789  0.4930343236306638  0.6697399331842957 1.0000   
         H         H         1.0       0.9612899380166194  0.49109333460625326           0.6753328191030309 1.0000   
         C         C         1.0       0.9146380652526016  0.08526547039447774           0.8398936374027972 1.0000   
         C         C         1.0       0.8859834533989474  0.09216032984950417           0.8084602764184979 1.0000   
         H         H         1.0       0.8980729444181808  0.051361068550832334         0.8480629172889967 1.0000   
         H         H         1.0       0.9112991940009385  0.10727417598551625           0.8608956153166172 1.0000   
         H         H         1.0       0.8551798260849078  0.07990054804141122           0.8212352906947812 1.0000   
         H         H         1.0       0.8907589058965616  0.07419180287505056           0.7850139351473904 1.0000   
         C         C         1.0       0.6167262283493393  0.20998357599218528           0.6911411774999136 1.0000   
         C         C         1.0       0.653018566180982   0.25407794214819907           0.6858200583480681 1.0000   
         H         H         1.0       0.6159754889008069  0.18561265764020218           0.6696637475528254 1.0000   
         H         H         1.0       0.588536499696095   0.2178921007208905  0.6852004310427422 1.0000   
         H         H         1.0       0.6543101416113841  0.27436133949125074           0.7103975034943955 1.0000   
         H         H         1.0       0.6436722520912095  0.2730993748199345  0.6646687577960939 1.0000   
         C         C         1.0       0.01261976391470676           0.39761127301027105          0.8913501758467716 1.0000   
         C         C         1.0       0.05805340351849786           0.4265163284584066 0.8789823976218518 1.0000   
         H         H         1.0       0.013733729444870502          0.3779916044120215 0.9137954040857322 1.0000   
         H         H         1.0       0.9968767521697967  0.41942692444874335           0.9018160462143637 1.0000   
         H         H         1.0       0.0679579815077358  0.4086310647574085  0.8589924269513575 1.0000   
         H         H         1.0       0.0823796989573431  0.428648390021766   0.8993069463186589 1.0000   
         C         C         1.0       0.17765497815806364           0.589588354270741  0.15823121501012105          1.0000   
         C         C         1.0       0.16958621463519008           0.5642741164439354 0.19444897145878604          1.0000   
         H         H         1.0       0.2079819073419762  0.6166211772092309  0.15922637908983006          1.0000   
         H         H         1.0       0.15720918935353945           0.6109994937986086 0.15857700327361268          1.0000   
         H         H         1.0       0.6223524797762165  0.4195182005241113  0.2538473413726088 1.0000   
         H         H         1.0       0.14763650538607176           0.5303464775619989 0.19235840731672327          1.0000   
         C         C         1.0       0.8723362100173069  0.30426377665061155           0.14170490036892236          1.0000   
         C         C         1.0       0.837665584655093   0.26135776349964907           0.1307335435769552 1.0000   
         H         H         1.0       0.8878215825594676  0.29470840062244147           0.1636919701873525 1.0000   
         H         H         1.0       0.861276628240551   0.3274473189339097  0.1543757756504911 1.0000   
         H         H         1.0       0.818563587381463   0.25236501037152614           0.15488342077695538          1.0000   
         H         H         1.0       0.8185284642085161  0.2663407758627291  0.10928491111197491          1.0000   
         C         C         1.0       0.9597578388132078  0.5261518000986555  0.9494201702416531 1.0000   
         C         C         1.0       0.9163515643333913  0.5326101555961822  0.9540599712217873 1.0000   
         H         H         1.0       0.9861549966632387  0.5538642498644682  0.9565552686424823 1.0000   
         H         H         1.0       0.9622450374554203  0.5227399930995574  0.9200816087713659 1.0000   
         H         H         1.0       0.9169880818208709  0.5570814474292825  0.9318856903753308 1.0000   
         H         H         1.0       0.8925463395592305  0.5010097575334921  0.9472831474962364 1.0000   
         C         C         1.0       0.2341365518916545  0.3045760619616759  0.07935432603713743          1.0000   
         C         C         1.0       0.24996651231469924           0.35428738286920886          0.07772022601109652          1.0000   
         H         H         1.0       0.20248523283125786           0.29311590399482157          0.09198072344444275          1.0000   
         H         H         1.0       0.2559578781267886  0.29511810428474644           0.09572626025714426          1.0000   
         H         H         1.0       0.27806499510578253           0.37037764110332516          0.06144570619458012          1.0000   
         H         H         1.0       0.25940815852551813           0.3656850974741337 0.10444016074812668          1.0000   
         C         C         1.0       0.8835737980183275  0.2047836080813814  0.9086488763328545 1.0000   
         C         C         1.0       0.9051112488379164  0.2073972101190266  0.9439555500300354 1.0000   
         H         H         1.0       0.8771981756304634  0.1719890598156755  0.8970630869659    1.0000   
         H         H         1.0       0.9062885248791015  0.22886229920775972           0.8883464048705701 1.0000   
         H         H         1.0       0.9324756940967464  0.19648545862831346           0.9404403666998166 1.0000   
         H         H         1.0       0.883044294067564   0.1870798282659728  0.9635745056646232 1.0000   
         C         C         1.0       0.32441244518590917           0.6428073370079614 0.9613010476071077 1.0000   
         C         C         1.0       0.30169065986086685           0.5965819024314746 0.9465688675403516 1.0000   
         H         H         1.0       0.35707942554557914           0.6571251126363636 0.9468988957457097 1.0000   
         H         H         1.0       0.33342561649982794           0.6404467278155223 0.9892372055251089 1.0000   
         H         H         1.0       0.32276063233453134           0.5791343983007624 0.939887341918521  1.0000   
         H         H         1.0       0.28841405065002657           0.6017282963960914 0.9197290611595554 1.0000   
         C         C         1.0       0.05532080894696034           0.7956100598026918 0.04271929275814568          1.0000   
         C         C         1.0       0.04647455809553769           0.8185790369559867 0.06985083037042927          1.0000   
         C         C         1.0       0.054342158000185936          0.8615331863851551 0.06405948101860304          1.0000   
         C         C         1.0       0.0727397934007874  0.8830538755842435  0.03157875008604827          1.0000   
         C         C         1.0       0.07889053984443883           0.8571020114978408 0.004781677163453013         1.0000   
         C         C         1.0       0.0687167771288284  0.8150925489621181  0.01087536798669042          1.0000   
         H         H         1.0       0.03331225154190909           0.8046768695850278 0.09465093489078868          1.0000   
         H         H         1.0       0.04333492326103361           0.879242133548174  0.08584480282168205          1.0000   
         H         H         1.0       0.08551118896011656           0.8707007200130502 0.9781661589267797 1.0000   
         H         H         1.0       0.06921987432435461           0.7955880765922779 0.989435194276214  1.0000   
         C         C         1.0       0.15835817506866756           0.9480696960294873 0.02134954555014068          1.0000   
         C         C         1.0       0.12494768596421113           0.9561951967465524 0.00521749417390005          1.0000   
         C         C         1.0       0.1352847014198031  0.9885144092334435  0.9781017337487966 1.0000   
         C         C         1.0       0.17720171180873878           0.009352901630278243         0.9680680154406526 1.0000   
         C         C         1.0       0.2087738495706808  0.999463965454805   0.9835894629057403 1.0000   
         C         C         1.0       0.20054493796153983           0.9704147667721142 0.011658892963317902         1.0000   
         C         C         1.0       0.07878122917308916           0.9322819247701408 0.02337456163275653          1.0000   
         C         C         1.0       0.08257287553609949           0.9670317736873638 0.05418993027886887          1.0000   
         C         C         1.0       0.07872382136451295           0.006718283971783201         0.04349684870035997          1.0000   
         C         C         1.0       0.08899443272107566           0.04155468094865222          0.06324922473040506          1.0000   
         C         C         1.0       0.10704989306372714           0.040576130666102106         0.0955204354302619 1.0000   
         C         C         1.0       0.11053567860237168           0.0015298031398172096        0.10719371826780955          1.0000   
         C         C         1.0       0.0997793220586225  0.9649122462675062  0.08686252673616934          1.0000   
         C         C         1.0       0.03366800645422918           0.9171773596031496 0.9658740552567042 1.0000   
         C         C         1.0       0.9946503402482543  0.8980541700607418  0.949512303590613  1.0000   
         C         C         1.0       0.9578710064427999  0.8909839717895014  0.9678068563639839 1.0000   
         C         C         1.0       0.9599876182031161  0.8971417526942775  0.00400770354854485          1.0000   
         C         C         1.0       0.9983131264599441  0.9138081788479243  0.0212799680445932 1.0000   
         C         C         1.0       0.03604267276373996           0.9239355354747985 0.0017256613925069608        1.0000   
         C         C         1.0       0.9119797128847138  0.87569648464957    0.9520077069243172 1.0000   
         C         C         1.0       0.8901829288670535  0.99565295989975    0.9398180650021608 1.0000   
         C         C         1.0       0.9176658230076706  0.9877213310047886  0.9174660403954807 1.0000   
         C         C         1.0       0.9277795189143908  0.9512196099581577  0.9241512037811112 1.0000   
         C         C         1.0       0.9060412373621805  0.9206879987045059  0.9502655782908846 1.0000   
         C         C         1.0       0.8825129091215888  0.9329928216900577  0.9762484519156567 1.0000   
         C         C         1.0       0.875828812156013   0.9708106272184767  0.9701982288519888 1.0000   
         C         C         1.0       0.8787606935232795  0.8356370108921576  0.9731795477884981 1.0000   
         C         C         1.0       0.8919183791031036  0.8039697983706263  0.9848713434072528 1.0000   
         C         C         1.0       0.8651992556334328  0.7671986667957504  5.6037296854105634e-05       1.0000   
         C         C         1.0       0.8220845040393979  0.759517807718123   0.0018395426531219172        1.0000   
         C         C         1.0       0.8053178691806103  0.7891588223443885  0.9883623190178986 1.0000   
         C         C         1.0       0.8340354815546407  0.826120638709839   0.9727113866691461 1.0000   
         C         C         1.0       0.8750562148821931  0.8615338345554718  0.889994469428219  1.0000   
         C         C         1.0       0.8658953138839138  0.8419709528860808  0.8570746984743222 1.0000   
         C         C         1.0       0.8818770769612633  0.8106125814419517  0.8491970526914133 1.0000   
         C         C         1.0       0.9099451860583574  0.8026443515533361  0.8722016062574727 1.0000   
         C         C         1.0       0.9234118102629169  0.8260295617021701  0.9024194352494819 1.0000   
         C         C         1.0       0.9052348151498344  0.8539910405028954  0.9118838003384818 1.0000   
         H         H         1.0       0.15378736070243737           0.9242412063367934 0.04109841521703905          1.0000   
         H         H         1.0       0.11251548329576089           0.0006383451887039815        0.9670744054536986 1.0000   
         H         H         1.0       0.18419405448932902           0.03697823754732488          0.9513261652687734 1.0000   
         H         H         1.0       0.2261874719693664  0.9633694125735782  0.02201791093274763          1.0000   
         H         H         1.0       0.06600121101552325           0.006364529230149962         0.01770037672286895          1.0000   
         H         H         1.0       0.0843573170892884  0.06951362754975743           0.055694475909052965         1.0000   
         H         H         1.0       0.12471849129739265           0.00447182314871486          0.13412899600219563          1.0000   
         H         H         1.0       0.1060701981247949  0.9380554058827061  0.09606063394639386          1.0000   
         H         H         1.0       0.06221697190604947           0.9195293581195795 0.9495972766010047 1.0000   
         H         H         1.0       0.9992653723391014  0.8985212940511922  0.921050749099928  1.0000   
         H         H         1.0       0.9314100283739851  0.8908076906881023  0.01916630468495506          1.0000   
         H         H         1.0       0.9985634599439988  0.9195673362369232  0.04915235219744707          1.0000   
         H         H         1.0       0.9335957175834224  0.009463702315155142         0.8962196868500474 1.0000   
         H         H         1.0       0.9515244068707336  0.9474903464119817  0.9038429495811857 1.0000   
         H         H         1.0       0.8627825310966596  0.9126487569855486  0.9969818419664377 1.0000   
         H         H         1.0       0.8541726120392414  0.977027262284095   0.9904883396281862 1.0000   
         H         H         1.0       0.9247079560390721  0.8101994338669941  0.9867438926809594 1.0000   
         H         H         1.0       0.8791414324550979  0.7435395292268975  0.01117296336981255          1.0000   
         H         H         1.0       0.7734256897670818  0.7827334637132924  0.9896953407975109 1.0000   
         H         H         1.0       0.8243646267423766  0.8522255162425848  0.9632933967368117 1.0000   
         H         H         1.0       0.858503140011672   0.8812184148566914  0.8987389617788951 1.0000   
         H         H         1.0       0.8408530999567224  0.8452838425125647  0.8418174750163391 1.0000   
         H         H         1.0       0.9212706545266943  0.777710130931393   0.863610590741443  1.0000   
         H         H         1.0       0.9449653210075505  0.819977279031177   0.9190137815953252 1.0000   
         C         C         1.0       0.8902574343352115  0.6104527775949091  0.7880362755635021 1.0000   
         C         C         1.0       0.8825906734042601  0.6456190657652305  0.8015623977564598 1.0000   
         C         C         1.0       0.9016488836917603  0.685151470678772   0.7851519054964946 1.0000   
         C         C         1.0       0.9293033378109965  0.6925824525562247  0.7564922997667965 1.0000   
         C         C         1.0       0.9382009464810916  0.6566535779158962  0.7453005264616319 1.0000   
         C         C         1.0       0.9189589357506149  0.6162083367651897  0.7602332632592863 1.0000   
         H         H         1.0       0.8613488442869532  0.6452548916736859  0.8224995092807819 1.0000   
         H         H         1.0       0.8925790038662764  0.7104675706363798  0.7957610964188182 1.0000   
         H         H         1.0       0.9632578778308446  0.6606842657169862  0.7250716534748126 1.0000   
         H         H         1.0       0.9275770075188791  0.5893190519703622  0.7525573354043633 1.0000   
         C         C         1.0       0.022308276619354306          0.7470759916909064 0.7230729221459034 1.0000   
         C         C         1.0       0.984685446730692   0.7519539519313735  0.7127872124213084 1.0000   
         C         C         1.0       0.9870783558663363  0.7767453570883899  0.6816657591732164 1.0000   
         C         C         1.0       0.024977347139352624          0.7940308242012919 0.6622115374423415 1.0000   
         C         C         1.0       0.061240412248734444          0.7886937832470532 0.6739376840515441 1.0000   
         C         C         1.0       0.05908703163621509           0.7631121313456081 0.7033785805547037 1.0000   
         C         C         1.0       0.9437549148165434  0.7384116842599947  0.7352194328744645 1.0000   
         C         C         1.0       0.9551301561535411  0.7813914807441246  0.7591248133089862 1.0000   
         C         C         1.0       0.9458087311846272  0.818371210038414   0.7499182387843027 1.0000   
         C         C         1.0       0.9585673357515566  0.8547045383504519  0.7728660356176847 1.0000   
         C         C         1.0       0.9794820808259119  0.8555743199031404  0.8042938989242397 1.0000   
         C         C         1.0       0.9890764047134768  0.8210260871167837  0.812102279272249  1.0000   
         C         C         1.0       0.975440384292046   0.7838548345985049  0.7918513105257995 1.0000   
         C         C         1.0       0.8956019889229013  0.709630412728527   0.6809694060120917 1.0000   
         C         C         1.0       0.8663791726010089  0.7164657271279258  0.657475339923661  1.0000   
         C         C         1.0       0.8349006482731954  0.7308724251936772  0.6701097040061533 1.0000   
         C         C         1.0       0.8331902530303217  0.7351701814805593  0.7059648618012582 1.0000   
         C         C         1.0       0.8657980673070803  0.7355306943467608  0.7276644970478913 1.0000   
         C         C         1.0       0.8997178266364023  0.7251970546992159  0.7142688066836371 1.0000   
         C         C         1.0       0.8036840502405256  0.7444209974528724  0.6481738771918706 1.0000   
         C         C         1.0       0.8809066436269944  0.8831438645194521  0.6646879061631495 1.0000   
         C         C         1.0       0.8926454866857263  0.8590232894313811  0.6407714632186444 1.0000   
         C         C         1.0       0.8674295181461492  0.8150357151427106  0.6360836242486598 1.0000   
         C         C         1.0       0.828084116895017   0.7954155933727473  0.6526042796122988 1.0000   
         C         C         1.0       0.8179954959683874  0.8207691067697797  0.6774956553353784 1.0000   
         C         C         1.0       0.8419975541126415  0.8641091094123095  0.6810802206155945 1.0000   
         C         C         1.0       0.7539923396890426  0.7256122852212333  0.6592960425022589 1.0000   
         C         C         1.0       0.7360081966304606  0.6867751465464375  0.6775229818114346 1.0000   
         C         C         1.0       0.6969422416401729  0.6749011689864133  0.6918382548281461 1.0000   
         C         C         1.0       0.6722365430202824  0.6985466009238354  0.6881817638150001 1.0000   
         C         C         1.0       0.6893812009537447  0.7363967159313263  0.6675796982191953 1.0000   
         C         C         1.0       0.72886046270477    0.7489706828597348  0.6543545891463406 1.0000   
         C         C         1.0       0.7973646389447043  0.7591605605914481  0.5805352986901624 1.0000   
         C         C         1.0       0.7877397480698177  0.7447923200426758  0.5469426324261367 1.0000   
         C         C         1.0       0.7870806175574644  0.7048318184903071  0.5379500398300321 1.0000   
         C         C         1.0       0.7876514226115277  0.6756577888007279  0.5644297953808485 1.0000   
         C         C         1.0       0.7903113116089522  0.6884073766046258  0.5980065092365524 1.0000   
         C         C         1.0       0.7989532215831763  0.7305094957374266  0.6070077489326341 1.0000   
         H         H         1.0       0.022628314477836087          0.7313448248206809 0.7482454191074505 1.0000   
         H         H         1.0       0.9622613111066518  0.7880819989494496  0.6720628501786402 1.0000   
         H         H         1.0       0.02065710798912157           0.8130521786269381 0.6400995951913259 1.0000   
         H         H         1.0       0.08835197948719586           0.7603303585104861 0.7124618770411691 1.0000   
         H         H         1.0       0.9267029425889555  0.8174947877400537  0.72737879987641   1.0000   
         H         H         1.0       0.9514178997091489  0.8848137875186963  0.7664937602834048 1.0000   
         H         H         1.0       0.9965645018478649  0.8176636576762342  0.8407024354421457 1.0000   
         H         H         1.0       0.9857918290135852  0.7587727271072318  0.8030251651677629 1.0000   
         H         H         1.0       0.9218716577664247  0.7011137164929799  0.6698980666891371 1.0000   
         H         H         1.0       0.874108524006696   0.7163562017772763  0.6284350492206507 1.0000   
         H         H         1.0       0.8110839379154025  0.748415064247193   0.7179446026793797 1.0000   
         H         H         1.0       0.867918052536577   0.7436769398084401  0.7553232801652995 1.0000   
         H         H         1.0       0.920581893383302   0.8743421126602586  0.6271104575488243 1.0000   
         H         H         1.0       0.8793981017428435  0.7949372295391164  0.618891886646404  1.0000   
         H         H         1.0       0.7892678984709312  0.8093127539788296  0.6961298368574781 1.0000   
         H         H         1.0       0.8325085840070264  0.8824026813063255  0.7002734525475184 1.0000   
         H         H         1.0       0.7504755931744347  0.6612109996836996  0.6783470358705393 1.0000   
         H         H         1.0       0.6840864121185324  0.6428385713590657  0.7044536444623793 1.0000   
         H         H         1.0       0.6678786894719084  0.7528278691224136  0.6597569533842074 1.0000   
         H         H         1.0       0.743116525190023   0.7790303034534466  0.6429052778358916 1.0000   
         H         H         1.0       0.8015241260379259  0.7928128381479909  0.5886470426685023 1.0000   
         H         H         1.0       0.789881433443337   0.7690264119718645  0.5272783827735675 1.0000   
         H         H         1.0       0.7788117175763695  0.6414336177180485  0.5596446772155862 1.0000   
         H         H         1.0       0.7849259241341201  0.6669900115237074  0.6209181508302661 1.0000   
         C         C         1.0       0.5699244696258073  0.6335363705103334  0.7357830419302973 1.0000   
         C         C         1.0       0.5451931537517368  0.6552321047607982  0.7485172433238136 1.0000   
         C         C         1.0       0.5260294022311958  0.6447870552486058  0.7812092254519583 1.0000   
         C         C         1.0       0.5327793063940464  0.6138388365496632  0.8031950585152522 1.0000   
         C         C         1.0       0.5560215923620689  0.5917297149868218  0.7888332080733141 1.0000   
         C         C         1.0       0.5737632698276734  0.600175856553005   0.7556050271880344 1.0000   
         H         H         1.0       0.5456145804353851  0.6856053048338352  0.736404908707205  1.0000   
         H         H         1.0       0.5111540588460032  0.6612641188806673  0.7951687440590663 1.0000   
         H         H         1.0       0.6017540104632036  0.09502951422193107           0.7666548620068656 1.0000   
         H         H         1.0       0.5986113146329951  0.584982202894073   0.747250680741285  1.0000   
         C         C         1.0       0.6449920324089397  0.08420999813973196           0.8299214831432186 1.0000   
         C         C         1.0       0.6087718207253577  0.09008213701120815           0.8433275645464283 1.0000   
         C         C         1.0       0.0701506815788453  0.03341654687010576           0.8613621451314716 1.0000   
         C         C         1.0       0.05684203878211025           0.9896093598030385 0.8561521269685846 1.0000   
         C         C         1.0       0.055930358659402435          0.973192918963766  0.822068903717256  1.0000   
         C         C         1.0       0.6524356964958566  0.047920529007486445         0.8386487929218162 1.0000   
         C         C         1.0       0.6022666662311724  0.13467406031298634           0.8359630706831019 1.0000   
         C         C         1.0       0.025501242826815984          0.5953155241141219 0.845137261056139  1.0000   
         C         C         1.0       0.006456216007021176          0.6121129569237448 0.8699117956301338 1.0000   
         C         C         1.0       0.9631897011981287  0.6031803868137569  0.8679689676555682 1.0000   
         C         C         1.0       0.9391722208881963  0.5765173007411563  0.8425919289802235 1.0000   
         C         C         1.0       0.9583526335236097  0.5607516189500976  0.8167568457185875 1.0000   
         C         C         1.0       0.0012793179064927163         0.5720996047580417 0.8170724582827131 1.0000   
         C         C         1.0       0.6310710184888865  0.15451984553882214           0.8977150034716664 1.0000   
         C         C         1.0       0.6599955389777324  0.1755791344605151  0.9205862985214646 1.0000   
         C         C         1.0       0.6361109786005926  0.7177579591919993  0.8840636202103694 1.0000   
         C         C         1.0       0.5972284280060005  0.7234141494305588  0.8823228452420995 1.0000   
         C         C         1.0       0.562368768651671   0.6917656392292468  0.8666097786087286 1.0000   
         C         C         1.0       0.5621441637303801  0.6518922882296271  0.856294820104102  1.0000   
         C         C         1.0       0.6801150333129241  0.7470220394104254  0.9032569782443365 1.0000   
         C         C         1.0       0.26556713046017943           0.10776548265010888          0.9981515442755188 1.0000   
         C         C         1.0       0.2945868978695172  0.14096050010812444           0.9795851894212749 1.0000   
         C         C         1.0       0.7301076508217288  0.22264171391959886           0.010854220572505291         1.0000   
         C         C         1.0       0.242327950218441   0.1723935727081436  0.9705825935016685 1.0000   
         C         C         1.0       0.21379326216897443           0.1403082263055342 0.9907241033474704 1.0000   
         C         C         1.0       0.22594272503999635           0.10839488557308408          0.00441540632879911          1.0000   
         C         C         1.0       0.17832019658177645           0.7378723328710084 0.9732893382644217 1.0000   
         C         C         1.0       0.1505897155431788  0.7009498629208978  0.9897745683426088 1.0000   
         C         C         1.0       0.12539204104485457           0.703791962045921  0.016945833370565877         1.0000   
         C         C         1.0       0.1223618437864391  0.7407635818981083  0.027864170351930895         1.0000   
         C         C         1.0       0.15166724472955928           0.7782209641882707 0.014113424669648156         1.0000   
         C         C         1.0       0.7138272160916139  0.8216727949435952  0.92884674990139   1.0000   
         C         C         1.0       0.7253509227642957  0.7491450369148208  0.8470790080366011 1.0000   
         C         C         1.0       0.7596484014700667  0.7454443165616835  0.8297468366317018 1.0000   
         C         C         1.0       0.7909617570805996  0.7376735320535186  0.8476817165637447 1.0000   
         C         C         1.0       0.7894396090492711  0.7383935153141269  0.8835828967265728 1.0000   
         C         C         1.0       0.7568349290306058  0.7446482553501442  0.9019860569508287 1.0000   
         C         C         1.0       0.7231266353057911  0.748188931992863   0.8844370206083035 1.0000   
         H         H         1.0       0.6678633930361292  0.10941478849175157           0.8134589142776039 1.0000   
         H         H         1.0       0.0675865517896026  0.04466684515457309           0.8894455841698705 1.0000   
         H         H         1.0       0.04373739439178714           0.9652745960631318 0.8793250725671268 1.0000   
         H         H         1.0       0.6796644952093163  0.043790417349314215         0.8281071938275028 1.0000   
         H         H         1.0       0.024017178466555267          0.6302017857931824 0.8928002569306741 1.0000   
         H         H         1.0       0.9461249598718048  0.612521297035087   0.8884863981081955 1.0000   
         H         H         1.0       0.9376904368148189  0.5402201213399661  0.7971881923723381 1.0000   
         H         H         1.0       0.013908650669377742          0.5593317423291981 0.7960340610056553 1.0000   
         H         H         1.0       0.6042867811023477  0.1255897261798864  0.9054048573573783 1.0000   
         H         H         1.0       0.6566135996424286  0.16039630699256913           0.9464705743486632 1.0000   
         H         H         1.0       0.5936956170882496  0.7520084377523012  0.8905245187983598 1.0000   
         H         H         1.0       0.5335559065636947  0.6979900983219341  0.8629119837072258 1.0000   
         H         H         1.0       0.32602035845964794           0.14332208932728663          0.9722672322889183 1.0000   
         H         H         1.0       0.7642208499845909  0.2270021724928084  0.007166135957404451         1.0000   
         H         H         1.0       0.18158124505251227           0.13888671607136982          0.9981373460423616 1.0000   
         H         H         1.0       0.2002001509160274  0.08158589799549576           0.019008145425757572         1.0000   
         H         H         1.0       0.14225897041189128           0.6688226360821772 0.9794684190439    1.0000   
         H         H         1.0       0.10633423361020333           0.6756093959333603 0.03156765466310807          1.0000   
         H         H         1.0       0.1526313737147964  0.8090233776522806  0.023387229800316378         1.0000   
         H         H         1.0       0.7245258311076648  0.8037354354507279  0.9488435620965724 1.0000   
         H         H         1.0       0.7017074689177477  0.7559034242074167  0.8302533184116795 1.0000   
         H         H         1.0       0.7615435833956287  0.748557217035454   0.7999118515072535 1.0000   
         H         H         1.0       0.8149276178265189  0.737535466390531   0.8985693653040533 1.0000   
         H         H         1.0       0.7490454816049514  0.16625274897571396           0.9578735245616591 1.0000   
         C         C         1.0       0.910280614294528   0.9623098224685033  0.6118744873970157 1.0000   
         C         C         1.0       0.8947473770226595  0.9947168855507318  0.6159917426294838 1.0000   
         C         C         1.0       0.8708255880639616  0.0036372368527541887        0.5894911825849694 1.0000   
         C         C         1.0       0.8622652981994698  0.9816534512780082  0.5576995750633258 1.0000   
         C         C         1.0       0.8761482100307888  0.9469645042020358  0.5541566434621771 1.0000   
         C         C         1.0       0.9002337144544466  0.9376546522164524  0.5806662143963489 1.0000   
         H         H         1.0       0.9001920294044561  0.013919362785239642         0.6399808548184178 1.0000   
         H         H         1.0       0.8639807045820931  0.03147312147739734           0.5932977820824461 1.0000   
         H         H         1.0       0.8749154409186088  0.931223230747012   0.5294535257145232 1.0000   
         H         H         1.0       0.9132001717207018  0.9118708012429846  0.5772002876100195 1.0000   
         C         C         1.0       0.8996306911083873  0.9991733701881597  0.48360631668925097          1.0000   
         C         C         1.0       0.8557868572997627  0.9901245348891411  0.4889746522156788 1.0000   
         C         C         1.0       0.8306619008899427  0.9823386168395042  0.45952091754572516          1.0000   
         C         C         1.0       0.8476335521383593  0.986302756667485   0.4256983520126779 1.0000   
         C         C         1.0       0.8904260200432822  0.9939776662217735  0.42177293238557867          1.0000   
         C         C         1.0       0.9161553013097564  0.0016917248959988918        0.45166008549389275          1.0000   
         C         C         1.0       0.8371736422942929  0.9925091772727466  0.5278275299076722 1.0000   
         C         C         1.0       0.8371093933597726  0.04129101599578178           0.5240461467638704 1.0000   
         C         C         1.0       0.8024194041386987  0.0488500484700396  0.5140425197051769 1.0000   
         C         C         1.0       0.804451458366117   0.09232022998232026           0.5114735556142221 1.0000   
         C         C         1.0       0.8421426143299784  0.127315548206133   0.5179445653726015 1.0000   
         C         C         1.0       0.8769367515352912  0.11769836021655822           0.5312831316770351 1.0000   
         C         C         1.0       0.8754966229140739  0.07528151584732323           0.5317100942593889 1.0000   
         C         C         1.0       0.7762030607905476  0.9151935334390383  0.5245675367003764 1.0000   
         C         C         1.0       0.7409301167579504  0.8814610369120685  0.5397447276333147 1.0000   
         C         C         1.0       0.7169314129814378  0.8912600311047633  0.5651233492435555 1.0000   
         C         C         1.0       0.7292254026442053  0.9334428561801121  0.5759745444070605 1.0000   
         C         C         1.0       0.7668851768117797  0.9661767892111779  0.5622831344643193 1.0000   
         C         C         1.0       0.7908493359467411  0.956063863377608   0.535964509032282  1.0000   
         C         C         1.0       0.6756792103911831  0.8568581775514363  0.585471955867362  1.0000   
         C         C         1.0       0.5696385442031039  0.8853228078339903  0.5475977139727005 1.0000   
         C         C         1.0       0.5905513303374844  0.8670760919836558  0.5260749839476825 1.0000   
         C         C         1.0       0.6263402440227634  0.8628133409485783  0.5367250211029669 1.0000   
         C         C         1.0       0.638804214609604   0.8719196565995533  0.5714869088295524 1.0000   
         C         C         1.0       0.6161766461398711  0.8899561788037595  0.5938061876302339 1.0000   
         C         C         1.0       0.5807883732517363  0.8959491908551107  0.581524427174613  1.0000   
         C         C         1.0       0.6844624089698775  0.8571842957653346  0.6280580750207801 1.0000   
         C         C         1.0       0.7237499582330192  0.8711686798385314  0.6438058998579971 1.0000   
         C         C         1.0       0.7291140758873648  0.8583897315420872  0.6786758749765966 1.0000   
         C         C         1.0       0.6932749359774221  0.8324694403335985  0.6980881971871254 1.0000   
         C         C         1.0       0.6548410047980598  0.8210415795095274  0.6827147491860247 1.0000   
         C         C         1.0       0.6496838547775924  0.8346107422227655  0.6497383859995433 1.0000   
         C         C         1.0       0.6206492427544923  0.7799052421048173  0.5813239984816482 1.0000   
         C         C         1.0       0.6079794623200196  0.7354076346627352  0.5814783482482184 1.0000   
         C         C         1.0       0.6375791742868211  0.7165558389264244  0.5809002771931783 1.0000   
         C         C         1.0       0.6811021353022415  0.744927072172156   0.575974081462344  1.0000   
         C         C         1.0       0.6937398269514551  0.7898025316533455  0.5775464011356354 1.0000   
         C         C         1.0       0.6628987656333595  0.8078534748427854  0.5774684785058316 1.0000   
         H         H         1.0       0.9183809161101258  0.9999787607697556  0.505029801111615  1.0000   
         H         H         1.0       0.7969548295636789  0.969279419370633   0.4593552451097055 1.0000   
         H         H         1.0       0.8250077083605927  0.9775797101062252  0.40392336452303834          1.0000   
         H         H         1.0       0.9501934804696041  0.007748730093282807         0.4478215151425064 1.0000   
         H         H         1.0       0.772820730774888   0.02333360781655136           0.5048255647511991 1.0000   
         H         H         1.0       0.7770548009578325  0.09716144846455266           0.4979441238957802 1.0000   
         H         H         1.0       0.907744798432871   0.14322242025291687           0.5391546535083868 1.0000   
         H         H         1.0       0.9038709481844333  0.07002401013290949           0.5402928613342839 1.0000   
         H         H         1.0       0.7949701341248633  0.9045812760209184  0.5077572884266885 1.0000   
         H         H         1.0       0.7345538918031711  0.851396430870766   0.5255126920353949 1.0000   
         H         H         1.0       0.7127920256470233  0.9425291851397682  0.5958646288110496 1.0000   
         H         H         1.0       0.7770479754585123  0.9988470305488432  0.5734150657713964 1.0000   
         H         H         1.0       0.5797468651810223  0.8580069975297352  0.4978644847206257 1.0000   
         H         H         1.0       0.6476094639665386  0.8579294168178547  0.5179461414064995 1.0000   
         H         H         1.0       0.6265160181439581  0.8960221021164642  0.6215824884668256 1.0000   
         H         H         1.0       0.5629947461361969  0.9078575995008124  0.6000527091803612 1.0000   
         H         H         1.0       0.7525215462904453  0.8846324026579802  0.6261053296874144 1.0000   
         H         H         1.0       0.7606180465744493  0.8688629380524808  0.6900074360857422 1.0000   
         H         H         1.0       0.10871530889697967           0.8812737086268054 0.58887396233241   1.0000   
         H         H         1.0       0.619314417911452   0.8225844764643232  0.6382340595572873 1.0000   
         H         H         1.0       0.5968730957837018  0.7943244860015393  0.5813279063343886 1.0000   
         H         H         1.0       0.5759269384742913  0.7129259524405741  0.5898561690855254 1.0000   
         H         H         1.0       0.7043252804301438  0.7300675118541593  0.5759257171890952 1.0000   
         H         H         1.0       0.7278336175704309  0.8077270941000034  0.579021108904349  1.0000   
         C         C         1.0       0.8697116926531745  0.06840133105327895           0.9942290770681792 1.0000   
         C         C         1.0       0.9069777358881245  0.07078037425805306           0.00843246154694599          1.0000   
         C         C         1.0       0.9161618441861962  0.08776523370726808           0.04249248832071939          1.0000   
         C         C         1.0       0.886390818113532   0.09873808933990746           0.06275007740547722          1.0000   
         C         C         1.0       0.8482972417810895  0.0954032739722035  0.04721714149691536          1.0000   
         C         C         1.0       0.8384525767338312  0.07579385458583321           0.014656370108256933         1.0000   
         H         H         1.0       0.9299074936774181  0.0588781387946562  0.9965968119467962 1.0000   
         H         H         1.0       0.9475206079901115  0.08918067690228093           0.0530463310668261 1.0000   
         H         H         1.0       0.8229093885681691  0.1012696333081824  0.06038820878094442          1.0000   
         H         H         1.0       0.8078913147733063  0.07138103727904821           0.0037642406606697154        1.0000   
         C         C         1.0       0.879757167665865   0.18654146751098133           0.08219194764004967          1.0000   
         C         C         1.0       0.8806307010938886  0.15712588438336184           0.10963740979514693          1.0000   
         C         C         1.0       0.8735137887582501  0.1685075291481437  0.14379692152891121          1.0000   
         C         C         1.0       0.8557904456745563  0.1967642337184441  0.150834133822388  1.0000   
         C         C         1.0       0.8539648046871363  0.22397182940783344           0.12298924237181197          1.0000   
         C         C         1.0       0.8694008779178689  0.22123708872743308           0.08932051217078585          1.0000   
         C         C         1.0       0.9000130496469456  0.12177579085271373           0.1014931115775275 1.0000   
         C         C         1.0       0.9486211663642306  0.14901045392225076           0.10895319757626964          1.0000   
         C         C         1.0       0.962824368940547   0.15386067251036195           0.14407615540184615          1.0000   
         C         C         1.0       0.0023431402361731024         0.17951117937236116          0.15371866546270252          1.0000   
         C         C         1.0       0.029853250434178635          0.20177761303037278          0.12870424060871133          1.0000   
         C         C         1.0       0.01879901722777122           0.19696872860495507          0.09309057241037301          1.0000   
         C         C         1.0       0.9777901884762618  0.17380314082241966           0.08372457536064681          1.0000   
         C         C         1.0       0.8323163465272603  0.06618877156359049           0.12919604019241948          1.0000   
         C         C         1.0       0.8122558185013896  0.033192050154307706         0.15084247206152335          1.0000   
         C         C         1.0       0.8347393831961386  0.013946283198685405         0.17116513158466615          1.0000   
         C         C         1.0       0.8781757887007485  0.02430063518261205           0.16266551739836807          1.0000   
         C         C         1.0       0.8983813053018631  0.05759647175742022           0.13905647622096629          1.0000   
         C         C         1.0       0.8764531520368348  0.07991515371176128           0.12405762041683223          1.0000   
         C         C         1.0       0.8158239714786676  0.9874063463184397  0.2057722772438478 1.0000   
         C         C         1.0       0.8898420630506872  0.08994636580592164           0.27680913366563686          1.0000   
         C         C         1.0       0.8582477647900084  0.09419457674570997           0.2556502154318276 1.0000   
         C         C         1.0       0.8327910804366581  0.060087035224109187         0.23662765191301854          1.0000   
         C         C         1.0       0.8396322103919236  0.022979890944284653         0.23350419353086005          1.0000   
         C         C         1.0       0.8780423438939029  0.022380397493803494         0.24672820777390939          1.0000   
         C         C         1.0       0.8999025889335105  0.05454074132307274           0.271483451693806  1.0000   
         C         C         1.0       0.8210981097872831  0.942473221551137   0.21348159760593535          1.0000   
         C         C         1.0       0.8348018190694684  0.9182164663062037  0.18867745995014606          1.0000   
         C         C         1.0       0.8351138737466718  0.8785653260638749  0.19773055794936498          1.0000   
         C         C         1.0       0.8287304204053482  0.8651138235765233  0.23146421962359667          1.0000   
         C         C         1.0       0.8185881138021291  0.8886600877670494  0.25707235860024646          1.0000   
         C         C         1.0       0.8122379244141252  0.9251225941232515  0.24857314167817848          1.0000   
         C         C         1.0       0.7393772214732586  0.9766763751702274  0.23521821332327597          1.0000   
         C         C         1.0       0.6952771545401432  0.9572800614665935  0.23506537823930523          1.0000   
         C         C         1.0       0.6740648331215809  0.9284135293777362  0.20823570433549374          1.0000   
         C         C         1.0       0.6971885039080263  0.9206834020012874  0.18056306900821908          1.0000   
         C         C         1.0       0.7426901801103603  0.9449218300646917  0.17867385877763736          1.0000   
         C         C         1.0       0.7646818629251191  0.9716444304280483  0.20674160177647027          1.0000   
         H         H         1.0       0.8903790517386663  0.18176020518453395           0.055850661970512805         1.0000   
         H         H         1.0       0.8798060370587839  0.15138348621457065           0.16489839660991545          1.0000   
         H         H         1.0       0.8505282535181046  0.20323094911944528           0.17726247094954578          1.0000   
         H         H         1.0       0.8712391408252897  0.24496896864817952           0.06978133583630064          1.0000   
         H         H         1.0       0.9403312197940096  0.13245716567979238           0.16411537289060646          1.0000   
         H         H         1.0       0.016217517391475145          0.18300945515531453          0.17947504668330552          1.0000   
         H         H         1.0       0.04216311177083254           0.2132343953587037 0.0731159678257507 1.0000   
         H         H         1.0       0.9677048844878434  0.17174994684431466           0.05460143468248347          1.0000   
         H         H         1.0       0.8135362478400604  0.08445195493669644           0.11992763125021422          1.0000   
         H         H         1.0       0.7813674214504643  0.0320146267266872  0.1604583679752474 1.0000   
         H         H         1.0       0.8966331623567337  0.009530088938171533         0.17627297216699192          1.0000   
         H         H         1.0       0.9305630634385789  0.0647429560575421  0.13185069623755563          1.0000   
         H         H         1.0       0.8449679818773613  0.11997885953534482           0.2595095130465974 1.0000   
         H         H         1.0       0.8064775184847923  0.06359677322612334           0.22264803940024458          1.0000   
         H         H         1.0       0.8899558868693295  0.9981349732165733  0.24318858773772759          1.0000   
         H         H         1.0       0.9199381684928561  0.046709926917483324         0.2899233286036899 1.0000   
         H         H         1.0       0.842013217318277   0.931905198600631   0.16276283193313404          1.0000   
         H         H         1.0       0.8482220100541262  0.8621035148983961  0.18028105660439797          1.0000   
         H         H         1.0       0.814033167130972   0.8807228422409843  0.2842433625695223 1.0000   
         H         H         1.0       0.8042957925910406  0.9431020736280227  0.2690035296945201 1.0000   
         H         H         1.0       0.753433696758232   0.9982987645138407  0.2565391502714467 1.0000   
         H         H         1.0       0.194007343734951   0.14452668270828894           0.17618387374370142          1.0000   
         H         H         1.0       0.6803877939864285  0.898930795511459   0.15904932936816496          1.0000   
         H         H         1.0       0.7625451266927787  0.9419925004282175  0.15656366894489238          1.0000   
         C         C         1.0       0.986849334184564   0.04978589591115967           0.3827640018577972 1.0000   
         C         C         1.0       0.027062983286855413          0.6183265309893826 0.39819447318505624          1.0000   
         C         C         1.0       0.06655800447134719           0.6322494926760279 0.41407715627115443          1.0000   
         C         C         1.0       0.09504464258220757           0.6131500715005599 0.40672001695496557          1.0000   
         C         C         1.0       0.054543296711156986          0.047535271488202024         0.37167466411603706          1.0000   
         C         C         1.0       0.01307575306690767           0.032912929746113484         0.3659009594498183 1.0000   
         H         H         1.0       0.007342629835966674          0.6381215879839925 0.4039584360977671 1.0000   
         H         H         1.0       0.07792134307213616           0.6608668814956914 0.4315580392341029 1.0000   
         H         H         1.0       0.07572097476686235           0.037077575302464805         0.35657018935782103          1.0000   
         H         H         1.0       0.9968364465336669  0.008449549873647655         0.34526526037952093          1.0000   
         C         C         1.0       0.5466522759974006  0.017119457227016577         0.48295599917435533          1.0000   
         C         C         1.0       0.16290698080968902           0.5935392603185025 0.42003794810257516          1.0000   
         C         C         1.0       0.6042234420597695  0.0016490908075290633        0.4645400608714061 1.0000   
         C         C         1.0       0.5837601895197865  0.9579265963334376  0.47177801626597676          1.0000   
         C         C         1.0       0.5439669866311249  0.9440881002630613  0.4847987559595726 1.0000   
         C         C         1.0       0.5243221449337447  0.973227557340499   0.49017396386922363          1.0000   
         C         C         1.0       0.14378568471188857           0.6308696496766035 0.41715762327320327          1.0000   
         C         C         1.0       0.605554285165022   0.5968368150022644  0.47041310770731176          1.0000   
         C         C         1.0       0.6470974030486212  0.6038816449065701  0.48307058260500485          1.0000   
         C         C         1.0       0.6598453734865688  0.6223191501016132  0.515854256150941  1.0000   
         C         C         1.0       0.632992092963476   0.6318695222543017  0.5370447915546906 1.0000   
         C         C         1.0       0.5905597880378298  0.6209147901023511  0.5257089493511419 1.0000   
         C         C         1.0       0.12427338882942984           0.6404674366192877 0.482958248387642  1.0000   
         C         C         1.0       0.16495359636444418           0.6493727296062288 0.3516026694396101 1.0000   
         C         C         1.0       0.17474479448505464           0.6750403167498591 0.32307209160240935          1.0000   
         C         C         1.0       0.17960926970376634           0.7190723176381918 0.3255906487710535 1.0000   
         C         C         1.0       0.17471224580525102           0.7350514607912467 0.3583860548869348 1.0000   
         C         C         1.0       0.16267696463240688           0.7070876318791158 0.3866279266088031 1.0000   
         C         C         1.0       0.15902570113723136           0.6634014314234433 0.384280949182836  1.0000   
         C         C         1.0       0.19448195484718278           0.7490682229301917 0.2876763048276028 1.0000   
         C         C         1.0       0.8295639647016748  0.09177247167882596           0.3465920789625529 1.0000   
         C         C         1.0       0.2846562111374462  0.19919704774352054           0.28503097631597796          1.0000   
         C         C         1.0       0.24831197063932064           0.20659992372409164          0.2773709791532563 1.0000   
         C         C         1.0       0.24373666511863923           0.7558481533970611 0.2877972282859774 1.0000   
         C         C         1.0       0.7822274965260522  0.6456421268994773  0.3506400426214152 1.0000   
         C         C         1.0       0.8215496279270363  0.6479436016325015  0.35793262911529294          1.0000   
         C         C         1.0       0.1870306227842422  0.7924184042924538  0.2834885021051276 1.0000   
         C         C         1.0       0.15046813555305416           0.7946053256146288 0.2984402985949775 1.0000   
         C         C         1.0       0.13452726216695843           0.8258405800258107 0.2868534385112359 1.0000   
         C         C         1.0       0.16102133634909221           0.8583719933369695 0.26287689247205337          1.0000   
         C         C         1.0       0.19755792066045585           0.8568465326411152 0.24973126542227328          1.0000   
         C         C         1.0       0.21103845513017871           0.8242653482084379 0.2588518212643581 1.0000   
         C         C         1.0       0.18178349940607852           0.7272013907613141 0.22049705474091227          1.0000   
         C         C         1.0       0.15582999888484217           0.7122336731576362 0.1933298777489072 1.0000   
         C         C         1.0       0.12985612476931174           0.21540211498715545          0.184279812225897  1.0000   
         C         C         1.0       0.09775835653035014           0.6783053517391794 0.2329566908036945 1.0000   
         C         C         1.0       0.12333755754461251           0.6965081014110168 0.2611409710555304 1.0000   
         C         C         1.0       0.16659300898182128           0.7235882565333478 0.25481023605865005          1.0000   
         H         H         1.0       0.5143198506849226  0.523087258121082   0.4668076973273061 1.0000   
         H         H         1.0       0.20326303672617496           0.1085175772760727 0.3643609496781997 1.0000   
         H         H         1.0       0.5995582329698531  0.9342637946997832  0.4680984503800768 1.0000   
         H         H         1.0       0.494065529490581   0.9662942609992703  0.5035649090563102 1.0000   
         H         H         1.0       0.6700724484902056  0.597074226869792   0.4673927507257036 1.0000   
         H         H         1.0       0.6910109634827559  0.6243093359852596  0.5242780528246563 1.0000   
         H         H         1.0       0.5654672564859253  0.6230905144809941  0.5435609199756911 1.0000   
         H         H         1.0       0.0918356792846895  0.6191005208379108  0.47874022344338385          1.0000   
         H         H         1.0       0.12915984649901602           0.0971274652948837 0.32624060574118874          1.0000   
         H         H         1.0       0.1520887376849953  0.1520738861085449  0.27947976441000505          1.0000   
         H         H         1.0       0.6938317425783204  0.6696824756790202  0.363524093556009  1.0000   
         H         H         1.0       0.6436171492395435  0.6484954438317341  0.41187389704570565          1.0000   
         H         H         1.0       0.2883007800522095  0.17188044291165916           0.27426326845138166          1.0000   
         H         H         1.0       0.2256766991791126  0.18717268177389634           0.25998077846733136          1.0000   
         H         H         1.0       0.7738680000018417  0.6719253137636143  0.3537025624962423 1.0000   
         H         H         1.0       0.8448319083101256  0.6789141092957299  0.3665901107748496 1.0000   
         H         H         1.0       0.13112897027364157           0.7675571625263826 0.3141113344402356 1.0000   
         H         H         1.0       0.10707298077939087           0.828012100920579  0.29679751315733166          1.0000   
         H         H         1.0       0.21977665266819302           0.8822064854510901 0.23220560249332317          1.0000   
         H         H         1.0       0.23775307322810146           0.8223058223760118 0.24403648338963116          1.0000   
         H         H         1.0       0.21521906841915373           0.7462446349501926 0.21602285523804318          1.0000   
         H         H         1.0       0.18981347362021173           0.23477207272349299          0.16044146943766194          1.0000   
         H         H         1.0       0.06486309255246181           0.6576167908899484 0.23642699304755377          1.0000   
         H         H         1.0       0.1104966475218716  0.6897287892273591  0.2872006487013521 1.0000   
         C         C         1.0       0.1463478854099105  0.8967562819004419  0.25211136815641816          1.0000   
         C         C         1.0       0.8231831847829821  0.8174821503840803  0.23867209290220323          1.0000   
         H         H         1.0       0.7686273514808353  0.7854137915957088  0.2100232518760824 1.0000   
         H         H         1.0       0.11337178941707893           0.8907290288729733 0.2583661114835548 1.0000   
         H         H         1.0       0.8374848367612594  0.8199159102749761  0.2666558672254269 1.0000   
         H         H         1.0       0.8399371361537082  0.8031032009682043  0.2189567554781105 1.0000   
         C         C         1.0       0.07421435313505076           0.23067364114757494          0.13957528707927702          1.0000   
         C         C         1.0       0.1047750844720905  0.2070845318735164  0.1484203057691713 1.0000   
         H         H         1.0       0.0659122367431757  0.7292310874758872  0.1479346909479187 1.0000   
         H         H         1.0       0.04107644299508584           0.7005818826228095 0.18825706404932163          1.0000   
         H         H         1.0       0.12929493936069103           0.21783501237905867          0.12661490704925082          1.0000   
         H         H         1.0       0.08856654412214793           0.17415877346924713          0.14033036409313973          1.0000   
         C         C         1.0       0.9024131906182273  0.11544119048001567           0.3125324033950736 1.0000   
         C         C         1.0       0.8750078800423636  0.09021873103809308           0.34390032349047117          1.0000   
         H         H         1.0       0.9347454793328073  0.12712254156250147           0.3164340616748454 1.0000   
         H         H         1.0       0.8973546746436478  0.14407325659712056           0.3070130507074771 1.0000   
         H         H         1.0       0.874904124684068   0.056027714009899254         0.34162465302626704          1.0000   
         H         H         1.0       0.8904199884279199  0.1045483383585768  0.3701095757261761 1.0000   
         C         C         1.0       0.9401551073843712  0.034482447706411845         0.3712101603577104 1.0000   
         C         C         1.0       0.9057002737548094  0.9910504579940906  0.38479278532841676          1.0000   
         H         H         1.0       0.9275132869214519  0.05866248813545738           0.3778810632968165 1.0000   
         H         H         1.0       0.9732353488347403  0.5584370739127493  0.3324887294665476 1.0000   
         H         H         1.0       0.8776068685043757  0.9798791759711357  0.36789283925879557          1.0000   
         H         H         1.0       0.9174412841649845  0.9648365004868683  0.3807921512605573 1.0000   
         C         C         1.0       0.6269980227880516  0.6697984373248459  0.5932840933761864 1.0000   
         C         C         1.0       0.649561681867701   0.6427386657333218  0.5740492316217255 1.0000   
         H         H         1.0       0.5925722425335301  0.6496756773013259  0.5946560531939448 1.0000   
         H         H         1.0       0.6349523029991616  0.6708927358502116  0.6219811873674266 1.0000   
         H         H         1.0       0.6402087920888342  0.6112349968887545  0.5873817478876285 1.0000   
         H         H         1.0       0.6848108310815009  0.6577728436071412  0.576738270529703  1.0000   
         C         C         1.0       0.5197119255956619  0.8965756136544873  0.49655712105924843          1.0000   
         C         C         1.0       0.5280658663944359  0.8880342613409272  0.5355610280010298 1.0000   
         H         H         1.0       0.48615096272251157           0.8900206385854689 0.4893937478263898 1.0000   
         H         H         1.0       0.5283124410602699  0.8757792447951935  0.47674975336783654          1.0000   
         H         H         1.0       0.5211523090874082  0.9107814339918661  0.5506537248314664 1.0000   
         H         H         1.0       0.5044059382699402  0.8578694094599867  0.5463953320794298 1.0000   
         C         C         1.0       0.7847277593486292  0.6923285301435027  0.4982829978480961 1.0000   
         C         C         1.0       0.8259696704238912  0.6930325248848938  0.47867217463826933          1.0000   
         H         H         1.0       0.7586911308653157  0.6623465946015857  0.49407878482841633          1.0000   
         H         H         1.0       0.7743811712090074  0.7136817217006549  0.48227641659251014          1.0000   
         H         H         1.0       0.8565905702901433  0.7195595993925051  0.4906679797969633 1.0000   
         H         H         1.0       0.8259641414721209  0.7009219331877369  0.44948947253961063          1.0000   
         C         C         1.0       0.1027469465149502  0.8166107020819482  0.6550801911437069 1.0000   
         C         C         1.0       0.6972275933430909  0.8119444006422984  0.7339338874840456 1.0000   
         H         H         1.0       0.12956696510451327           0.8088589520170176 0.667178835512818  1.0000   
         H         H         1.0       0.10326241551404736           0.8088534746345827 0.6256481364623546 1.0000   
         H         H         1.0       0.09559909825967572           0.8765587780847784 0.6600630311558803 1.0000   
         H         H         1.0       0.6745372975361875  0.7768423376946084  0.7350535004352244 1.0000   
         C         C         1.0       0.9366679945892592  0.9566270030982118  0.6419803776321297 1.0000   
         C         C         1.0       0.9104569646848231  0.9295821651524484  0.6738775386156534 1.0000   
         H         H         1.0       0.9581717751086932  0.9866346930467303  0.6529661944278914 1.0000   
         H         H         1.0       0.9614321389398468  0.9467390042500853  0.6310589921255878 1.0000   
         H         H         1.0       0.893283171653165   0.9478733191366783  0.6887454681550236 1.0000   
         H         H         1.0       0.9346771190630199  0.9275671018681855  0.6924421833796773 1.0000   
         C         C         1.0       0.8902112574706684  0.55862250714537    0.8423645409505535 1.0000   
         C         C         1.0       0.8710996140300543  0.5654155466967686  0.8068827541855437 1.0000   
         H         H         1.0       0.8784695497178587  0.5232136343607722  0.8475285608214326 1.0000   
         H         H         1.0       0.8773233946884207  0.572043359146508   0.8641576125417556 1.0000   
         H         H         1.0       0.8353855378979426  0.5586905954450694  0.8082186996985198 1.0000   
         H         H         1.0       0.873727777014471   0.5409220854503534  0.788185932057769  1.0000   
         C         C         1.0       0.5932329185029249  0.6513472937771966  0.7021577261337333 1.0000   
         C         C         1.0       0.633041389450292   0.6921156308819805  0.7105543845762755 1.0000   
         H         H         1.0       0.6058904456038723  0.6260213474019437  0.6928914230684055 1.0000   
         H         H         1.0       0.5754873886551958  0.6567036138152869  0.6786836237943269 1.0000   
         H         H         1.0       0.6413428081562219  0.6917019409873634  0.7403424917875503 1.0000   
         H         H         1.0       0.6219891961205944  0.7199237234127835  0.706994639295423  1.0000   
         C         C         1.0       0.99388574498625    0.8988424247234371  0.8254373872449023 1.0000   
         C         C         1.0       0.042361005730321866          0.9241200344087538 0.8177026498336608 1.0000   
         H         H         1.0       0.9861461506142567  0.8893099049326194  0.8533995742456957 1.0000   
         H         H         1.0       0.9771782738300596  0.9188732469259718  0.8182294642020289 1.0000   
         H         H         1.0       0.05063793659969407           0.920186055086147  0.7890636477477222 1.0000   
         H         H         1.0       0.0615823031028524  0.9109567243393677  0.8333236604531973 1.0000   
         C         C         1.0       0.11782706075295102           0.07788725490028958          0.11922258879117753          1.0000   
         C         C         1.0       0.16212945323136263           0.11484272822410158          0.10827692143589251          1.0000   
         H         H         1.0       0.09169211033475055           0.09014386181578993          0.12330145694938577          1.0000   
         H         H         1.0       0.11928299847074486           0.06776045414880683          0.1477752691281946 1.0000   
         H         H         1.0       0.6166134830777115  0.9017348111310319  0.23591262149747383          1.0000   
         H         H         1.0       0.16211467286918024           0.1476604118090452 0.11415582304655136          1.0000   
         C         C         1.0       0.791168796474311   0.7149071797268761  0.01282476654066933          1.0000   
         C         C         1.0       0.792260353472721   0.7097303381331276  0.052893585839691726         1.0000   
         H         H         1.0       0.7592915478645901  0.7113181813980373  0.0023156332228824184        1.0000   
         H         H         1.0       0.8027504093766734  0.6928099503586198  0.9980458802890709 1.0000   
         H         H         1.0       0.8044288270280469  0.740283036294767   0.06727701631975558          1.0000   
         H         H         1.0       0.7595293364277798  0.6951426467190518  0.06432898063267256          1.0000   
         C         C         1.0       0.8852154154116394  0.03736903383605039           0.9308353155614668 1.0000   
         C         C         1.0       0.8532764703306773  0.04895699913761531           0.9570399461094736 1.0000   
         H         H         1.0       0.9168836415029207  0.06437588649030546           0.9271649346428318 1.0000   
         H         H         1.0       0.8730162005424862  0.03547286677495465           0.9036894000921278 1.0000   
         H         H         1.0       0.8389053520973411  0.0674354796224863  0.9431969874600277 1.0000   
         H         H         1.0       0.8246985249608886  0.01757628551326529           0.961387012630456  1.0000   
         C         C         1.0       0.09448594019290635           0.7440707581526821 0.05998630598953425          1.0000   
         C         C         1.0       0.050881046114154005          0.7475521417310279 0.04859725031433593          1.0000   
         H         H         1.0       0.09019079680960873           0.7166198084686353 0.07821683678406921          1.0000   
         H         H         1.0       0.10750575793406347           0.7738816156909931 0.07480473546224053          1.0000   
         H         H         1.0       0.028176980254576378          0.7357985295968499 0.0709917279234955 1.0000   
         H         H         1.0       0.03597670268692377           0.7270751248609929 0.025271706618094747         1.0000   
         C         C         1.0       0.8286012473460922  0.7336089118907012  0.8265804013759408 1.0000   
         C         C         1.0       0.8625039170807393  0.778278186490078   0.8185205771452184 1.0000   
         H         H         1.0       0.843580546999865   0.7125738303909961  0.8395815174813172 1.0000   
         H         H         1.0       0.8145139596831507  0.7157061102868963  0.801205835421034  1.0000   
         H         H         1.0       0.8484865743454225  0.7938864816618793  0.7971819853969939 1.0000   
         H         H         1.0       0.891473987842365   0.7745704511145889  0.8081467656016711 1.0000   
         C         C         1.0       0.274561957912262   0.06693506601396337           0.005126851536369381         1.0000   
         C         C         1.0       0.25547915549213074           0.030678361303759116         0.9778638360170282 1.0000   
         H         H         1.0       0.309941166540427   0.07517750153033642           0.0029946486785727977        1.0000   
         H         H         1.0       0.26515870639254735           0.05449741731169078          0.031035889051706622         1.0000   
         H         H         1.0       0.2737620909901426  0.00939596169217305           0.9786420456991248 1.0000   
         H         H         1.0       0.2656408630490632  0.04478450225256281           0.9517537422733682 1.0000

