data_0
_chemical_formula_sum                   'C1200 H960'
_cell_length_a                          43.54427460025141
_cell_length_b                          41.56648472587703
_cell_length_c                          48.51404019007187
_cell_angle_alpha                       89.91519892347165
_cell_angle_beta                        89.7430814708871
_cell_angle_gamma                       107.4442397123132
_space_group_name_H-M_alt               'P 1'
_space_group_IT_number                  1
loop_
  _space_group_symop_operation_xyz
         'x, y, z' 
loop_
  _atom_site_type_symbol
  _atom_site_label
  _atom_site_symmetry_multiplicity
  _atom_site_fract_x
  _atom_site_fract_y
  _atom_site_fract_z
  _atom_site_occupancy
         C         C         1.0       0.4136741299085301  0.12241721839240813           0.8419022488045168 1.0000   
         C         C         1.0       0.4141089200086548  0.12953470423708063           0.8701474974800615 1.0000   
         C         C         1.0       0.41009238996272684           0.15818392447102736          0.8798590075795117 1.0000   
         C         C         1.0       0.40473083962099593           0.1816630369629414 0.862841031448276  1.0000   
         C         C         1.0       0.4006893366684662  0.17518239668444702           0.8351067327860477 1.0000   
         C         C         1.0       0.4065237627566286  0.14616238770949613           0.8244054742987247 1.0000   
         H         H         1.0       0.41517131441983457           0.11123767535942863          0.8844608798489326 1.0000   
         H         H         1.0       0.4106980068487453  0.16130609424470396           0.902272025122287  1.0000   
         H         H         1.0       0.39438948197073254           0.19238278005546938          0.8226829979429235 1.0000   
         H         H         1.0       0.4039096571502506  0.13732034564664575           0.8025959022624097 1.0000   
         C         C         1.0       0.4408395516146892  0.2605191016554293  0.8486220105654297 1.0000   
         C         C         1.0       0.409397141204171   0.24859186035749298           0.8598028981124081 1.0000   
         C         C         1.0       0.3904628182156478  0.2688755741492183  0.8563301722052158 1.0000   
         C         C         1.0       0.39951417538849726           0.2969074408060598 0.8397639804476729 1.0000   
         C         C         1.0       0.43032097973190075           0.30730170109633437          0.8293124073498321 1.0000   
         C         C         1.0       0.45116535730498275           0.2897642461599649 0.8329980931468784 1.0000   
         C         C         1.0       0.3986898479282331  0.21395115690407834           0.87779051357925   1.0000   
         C         C         1.0       0.4178464334043703  0.2283144805423216  0.9071831560936023 1.0000   
         C         C         1.0       0.4091038594129888  0.2528207769933267  0.9233387397454386 1.0000   
         C         C         1.0       0.42497475908971355           0.2656925945381029 0.9469130708235645 1.0000   
         C         C         1.0       0.45177418403443725           0.25712613750202307          0.9546830902558067 1.0000   
         C         C         1.0       0.4627323564867182  0.23531692913769336           0.9382435953016552 1.0000   
         C         C         1.0       0.44683575336302067           0.22326919627396338          0.9144442641082892 1.0000   
         C         C         1.0       0.337152630946598   0.1944743677093775  0.8638743356480908 1.0000   
         C         C         1.0       0.3048881452197392  0.1788308487617417  0.8689960549958093 1.0000   
         C         C         1.0       0.29524185119544016           0.16492368487989786          0.8940934452953861 1.0000   
         C         C         1.0       0.3180122650906636  0.1700905801393819  0.9148090663691727 1.0000   
         C         C         1.0       0.349973373545445   0.18615654431157996           0.9099127746558751 1.0000   
         C         C         1.0       0.36175766118341063           0.19786720214636333          0.8844733192695015 1.0000   
         C         C         1.0       0.25756453202887847           0.1435257275025753 0.899834634879401  1.0000   
         C         C         1.0       0.24039953748193996           0.22913498148119382          0.9427223924112977 1.0000   
         C         C         1.0       0.23900879351100862           0.22814573783353423          0.9145695362876588 1.0000   
         C         C         1.0       0.24120335925795816           0.1997769064800375 0.9002742110749217 1.0000   
         C         C         1.0       0.2470458167138232  0.17272836218585258           0.914463003955953  1.0000   
         C         C         1.0       0.25088151547444393           0.17689724229684559          0.9427181725579651 1.0000   
         C         C         1.0       0.24796360456352895           0.20448639276386477          0.9574174466073734 1.0000   
         C         C         1.0       0.25258139031238513           0.1109234713047354 0.9193313904479229 1.0000   
         C         C         1.0       0.2745241587113044  0.09284028675920866           0.9219581365527709 1.0000   
         C         C         1.0       0.268413682493287   0.0657651452514613  0.9393340967120783 1.0000   
         C         C         1.0       0.2418823283810834  0.056961214147777633         0.9553232563221187 1.0000   
         C         C         1.0       0.21984663995899334           0.07440996503606706          0.9539642878519417 1.0000   
         C         C         1.0       0.22382592363770226           0.09924706091176326          0.9340431596600512 1.0000   
         C         C         1.0       0.2036371057548967  0.1297608631511081  0.8706818713889631 1.0000   
         C         C         1.0       0.18838836139811627           0.12098491746279476          0.8463703853930254 1.0000   
         C         C         1.0       0.2001163825812848  0.10443652723370425           0.826872694942836  1.0000   
         C         C         1.0       0.22994501537119869           0.10072579815404464          0.8296027902728672 1.0000   
         C         C         1.0       0.24785773080272722           0.11320927870776422          0.8527865180070059 1.0000   
         C         C         1.0       0.2349289504759459  0.12865919685034247           0.8733249427510898 1.0000   
         H         H         1.0       0.45795662042388996           0.24608101506244037          0.8527120095817144 1.0000   
         H         H         1.0       0.36702321816802613           0.26144868388884623          0.8662713454142841 1.0000   
         H         H         1.0       0.383822116259442   0.3118468100401958  0.835570080226834  1.0000   
         H         H         1.0       0.47661187348709455           0.2982505146089338 0.8259928768305573 1.0000   
         H         H         1.0       0.39344348800600226           0.26587214390961206          0.9150343648693605 1.0000   
         H         H         1.0       0.42036901868091875           0.28596770346621403          0.9577454866075914 1.0000   
         H         H         1.0       0.4843939937912384  0.22865329380429952           0.9433870924112853 1.0000   
         H         H         1.0       0.45703562775169315           0.20813202750674753          0.9017307152544385 1.0000   
         H         H         1.0       0.34390431617931666           0.20875776003648297          0.8450356922677766 1.0000   
         H         H         1.0       0.28765007312030916           0.17813736432722682          0.8535841290371221 1.0000   
         H         H         1.0       0.30954825969356803           0.1616198014000555 0.9355620754122441 1.0000   
         H         H         1.0       0.3638430731099103  0.18562548617094604           0.9269565086684387 1.0000   
         H         H         1.0       0.2392986037797442  0.2509626716940498  0.9021147734551592 1.0000   
         H         H         1.0       0.24275516674808073           0.20342567662949196          0.8780116116892811 1.0000   
         H         H         1.0       0.25719922671593143           0.15835693146547516          0.9545472862161617 1.0000   
         H         H         1.0       0.25135207015328737           0.20679507078589054          0.9793730206428125 1.0000   
         H         H         1.0       0.2986328987312409  0.10195899784656555           0.9141227612575785 1.0000   
         H         H         1.0       0.2867949920648545  0.054403598164994744         0.9408620320118877 1.0000   
         H         H         1.0       0.19804566156774692           0.06806770240027256          0.9657649688009873 1.0000   
         H         H         1.0       0.20351080341144814           0.1083132080578999 0.931617490827128  1.0000   
         H         H         1.0       0.19023388076969033           0.13752835781175937          0.8887939857285837 1.0000   
         H         H         1.0       0.16432684534960473           0.12094361678709607          0.8448989328959807 1.0000   
         H         H         1.0       0.2405528345106112  0.09103445388785322           0.8132654054681184 1.0000   
         H         H         1.0       0.2711383135463724  0.10928856569576785           0.8560361112393368 1.0000   
         C         C         1.0       0.41707171090178285           0.1397896770786782 0.5991593585822982 1.0000   
         C         C         1.0       0.4076032286704834  0.1621252142901273  0.6153187817237874 1.0000   
         C         C         1.0       0.4003440489779846  0.1876359339655343  0.6024251507675641 1.0000   
         C         C         1.0       0.4013433526348184  0.19216727654326865           0.5740274079078113 1.0000   
         C         C         1.0       0.4100299556756059  0.16823314324035168           0.5580029466086938 1.0000   
         C         C         1.0       0.4200792057194885  0.1434602286448684  0.5712458392179939 1.0000   
         H         H         1.0       0.4037534565824245  0.15976270570120252           0.6374899312678105 1.0000   
         H         H         1.0       0.3923626510295913  0.2062536076312981  0.6142881346362155 1.0000   
         H         H         1.0       0.4080929278880092  0.16830770141042675           0.5365747121571763 1.0000   
         H         H         1.0       0.4224679175543439  0.12348086897758152           0.5583561144329124 1.0000   
         C         C         1.0       0.4410371376920274  0.23243349179696032           0.5269163445788656 1.0000   
         C         C         1.0       0.41085755148955305           0.23521509792159448          0.5314507353836839 1.0000   
         C         C         1.0       0.3974031047195514  0.252395817590805   0.5127475381624609 1.0000   
         C         C         1.0       0.41174645745700805           0.26215396421740456          0.4873891832245598 1.0000   
         C         C         1.0       0.44205639089823495           0.259438232312106  0.48231618687319566          1.0000   
         C         C         1.0       0.4570363700040863  0.245054598890389   0.5021946961109066 1.0000   
         C         C         1.0       0.3912845739769118  0.22195351990863715           0.5585444198318945 1.0000   
         C         C         1.0       0.40389323359966656           0.2565505441861451 0.5779031485357949 1.0000   
         C         C         1.0       0.38416143652373763           0.27538382291750707          0.5835630933621048 1.0000   
         C         C         1.0       0.3911454918914178  0.30072107361831263           0.6020376729369119 1.0000   
         C         C         1.0       0.42261803847821416           0.3107569498804371 0.6129011670607583 1.0000   
         C         C         1.0       0.44362027392713377           0.29220683983929596          0.6076603953017442 1.0000   
         C         C         1.0       0.43565159454787084           0.26655080293676436          0.5886710673556971 1.0000   
         C         C         1.0       0.34432044084629787           0.18007554759799066          0.5326742506741392 1.0000   
         C         C         1.0       0.31283831860429134           0.1653728004164951 0.5282714391947911 1.0000   
         C         C         1.0       0.2890100987148545  0.1652578823559908  0.5477127626497618 1.0000   
         C         C         1.0       0.29998570746703507           0.1840201474553447 0.5708653621431792 1.0000   
         C         C         1.0       0.33087977546822034           0.2044365986309574 0.5739993040379742 1.0000   
         C         C         1.0       0.3545123285836745  0.20275717684675224           0.554143356985018  1.0000   
         C         C         1.0       0.2515320404006263  0.14901026049501656           0.5416493188038991 1.0000   
         C         C         1.0       0.24316028785062904           0.24111275130097673          0.4999671405316788 1.0000   
         C         C         1.0       0.24515897885098142           0.21404948798386772          0.48442493197869047          1.0000   
         C         C         1.0       0.24649146839759    0.1849985551041976  0.49630194968880903          1.0000   
         C         C         1.0       0.24482753607846658           0.18105426914721684          0.5250879394358304 1.0000   
         C         C         1.0       0.2429768151765496  0.2073847411895484  0.5411309370806321 1.0000   
         C         C         1.0       0.24298398465541501           0.23721190130933326          0.5282986524933548 1.0000   
         C         C         1.0       0.2290042371783991  0.135701759804177   0.5680906070055506 1.0000   
         C         C         1.0       0.2390466942590829  0.11943116384000592           0.5892153099026934 1.0000   
         C         C         1.0       0.22013355246698532           0.10742354942032127          0.6115515033457177 1.0000   
         C         C         1.0       0.1887020201805411  0.10836039290615435           0.612847823140814  1.0000   
         C         C         1.0       0.1783321542653538  0.12351590883445314           0.5918415694269417 1.0000   
         C         C         1.0       0.1973039998362657  0.13448192174795653           0.568804144334494  1.0000   
         C         C         1.0       0.22203170395811972           0.1049930608155361 0.5046791266765406 1.0000   
         C         C         1.0       0.2143109585474358  0.07387523639502935           0.49159885651604157          1.0000   
         C         C         1.0       0.23172396112016203           0.05231877527792338          0.49841126461148477          1.0000   
         C         C         1.0       0.2542174890428743  0.06107129839516372           0.5186698625860879 1.0000   
         C         C         1.0       0.26143988211254243           0.09123755207387114          0.5314509994300872 1.0000   
         C         C         1.0       0.24474728418453304           0.11433867769959091          0.525777143399131  1.0000   
         H         H         1.0       0.4528451237539178  0.22122557419994784           0.5402036561188301 1.0000   
         H         H         1.0       0.3731062945609685  0.25510678042874424           0.5153655274099591 1.0000   
         H         H         1.0       0.3974814594770971  0.2696505718573743  0.471556155272308  1.0000   
         H         H         1.0       0.4801385516543694  0.2405106288913429  0.4962907207092849 1.0000   
         H         H         1.0       0.3618209777354197  0.2712945774378149  0.571370001810155  1.0000   
         H         H         1.0       0.3729341383513102  0.3104182386875219  0.6074766265565887 1.0000   
         H         H         1.0       0.465948614421576   0.30225922016566026           0.6180889382015274 1.0000   
         H         H         1.0       0.45387311979864936           0.25485654486292947          0.5835401169909026 1.0000   
         H         H         1.0       0.36367988685315816           0.17545637498151517          0.5212377064398237 1.0000   
         H         H         1.0       0.3053512713043947  0.14962004079227711           0.5108481269627181 1.0000   
         H         H         1.0       0.28397367736349255           0.18387509268726332          0.5879600302745548 1.0000   
         H         H         1.0       0.33960098700071367           0.21448971434303382          0.5941809759947526 1.0000   
         H         H         1.0       0.2490779902385004  0.21595384298852421           0.4614666907446319 1.0000   
         H         H         1.0       0.2505169737936981  0.1659618677559846  0.4835056508985886 1.0000   
         H         H         1.0       0.2410070633048011  0.20627653187417627           0.5637596388904973 1.0000   
         H         H         1.0       0.24426383185056894           0.2596045846989016 0.541156209442472  1.0000   
         H         H         1.0       0.2628709393726538  0.11798813656914159           0.5909063698125804 1.0000   
         H         H         1.0       0.23035939113229717           0.09463726337692588          0.6261163874900677 1.0000   
         H         H         1.0       0.15602609236030437           0.128076205140012  0.5909226350019231 1.0000   
         H         H         1.0       0.18841643866426563           0.14500102769301204          0.5502972082936897 1.0000   
         H         H         1.0       0.20976038598729307           0.12198411151651768          0.4984929795699835 1.0000   
         H         H         1.0       0.194924722278751   0.06865618902299783           0.47592754909506807          1.0000   
         H         H         1.0       0.2651924813603537  0.04397782193053683           0.5255284677653486 1.0000   
         H         H         1.0       0.27606604592056083           0.09275979475556469          0.5490014042541704 1.0000   
         C         C         1.0       0.10985061823079215           0.05256231871092165          0.6414932648061442 1.0000   
         C         C         1.0       0.08973599028257641           0.07193375398862746          0.6389118411022071 1.0000   
         C         C         1.0       0.057586025595095555          0.0599578149349295 0.6476959042423167 1.0000   
         C         C         1.0       0.04674267247432506           0.027066468493808317         0.6584857971000238 1.0000   
         C         C         1.0       0.0686814644896292  0.00961988237869346           0.6640240690991092 1.0000   
         C         C         1.0       0.09926897121530116           0.021212626513090558         0.6550598774707446 1.0000   
         H         H         1.0       0.096895454541821   0.09370576840183072           0.6245364825401605 1.0000   
         H         H         1.0       0.04369447863787077           0.07621295702838694          0.6437543556875955 1.0000   
         H         H         1.0       0.07987450533709689           0.49913191684734987          0.6566709269210085 1.0000   
         H         H         1.0       0.11382167990938998           0.00616537228166253          0.6544993502063162 1.0000   
         C         C         1.0       0.022504586438519023          0.478993046002957  0.6243277061357705 1.0000   
         C         C         1.0       0.014918773618093538          0.4859607865576263 0.6505020002258093 1.0000   
         C         C         1.0       0.47747200000414425           0.4455384086430257 0.6612107907576061 1.0000   
         C         C         1.0       0.4641861986951552  0.4148900855057094  0.648149941998265  1.0000   
         C         C         1.0       0.4750747757998653  0.4069730304528614  0.6233219970504003 1.0000   
         C         C         1.0       0.015470208731243005          0.44573733381842096          0.6154386975882807 1.0000   
         C         C         1.0       0.028320773256414904          0.5238696562336416 0.662402937362688  1.0000   
         C         C         1.0       0.4858606871698928  0.032071214773146686         0.6390670879594297 1.0000   
         C         C         1.0       0.46125223484834094           0.03442326113955067          0.6559722312748238 1.0000   
         C         C         1.0       0.4371674207806151  0.04661232823151598           0.6451861069113849 1.0000   
         C         C         1.0       0.43812071957621046           0.0568361674610602 0.6181328595705005 1.0000   
         C         C         1.0       0.46392491097197536           0.054100279758278844         0.6009787006966746 1.0000   
         C         C         1.0       0.4867289806513148  0.043135951076738385         0.612615947970628  1.0000   
         C         C         1.0       0.04355923413885107           0.5052369539716777 0.7093447883605876 1.0000   
         C         C         1.0       0.048959388889195134          0.5089494383486676 0.7375177675451989 1.0000   
         C         C         1.0       0.008915880358705615          0.012898417787916684         0.752736145208325  1.0000   
         C         C         1.0       0.01353792755100736           0.042639129410525126         0.7377098463984223 1.0000   
         C         C         1.0       0.011374402570711125          0.042448995967345034         0.7094424171542946 1.0000   
         C         C         1.0       0.00885753754786866           0.012868522074511857         0.6946095130984523 1.0000   
         C         C         1.0       0.011412400502856027          0.01338845228475141          0.7855505935124759 1.0000   
         C         C         1.0       0.4637102399472387  0.4041175739454432  0.819953989571876  1.0000   
         C         C         1.0       0.4857454779286185  0.4269827060937962  0.8343783671259684 1.0000   
         C         C         1.0       0.024958343358031085          0.48483583666918306          0.8207444839162272 1.0000   
         C         C         1.0       0.49428874379424725           0.46707487381365503          0.7967992449671293 1.0000   
         C         C         1.0       0.46989384051426425           0.44280954670918693          0.7837362202598683 1.0000   
         C         C         1.0       0.45455075458635025           0.4114121812699913 0.7948385283038131 1.0000   
         C         C         1.0       0.509332715450549   0.039813631933612474         0.7877933698855009 1.0000   
         C         C         1.0       0.4834038241660952  0.045687504995581274         0.7749014876930855 1.0000   
         C         C         1.0       0.46390832501867735           0.0613330367866908 0.7889652988166549 1.0000   
         C         C         1.0       0.47376237738672483           0.07545561009792731          0.8145115672938528 1.0000   
         C         C         1.0       0.49934698070359945           0.06866306108435723          0.8275262034345325 1.0000   
         C         C         1.0       0.9981552911635841  0.047881587855866756         0.8278476049924692 1.0000   
         C         C         1.0       0.06698721118032482           0.060178976761305174         0.7951368887888999 1.0000   
         C         C         1.0       0.09966214508665244           0.07107286876421715          0.8014642297075245 1.0000   
         C         C         1.0       0.11609793404422239           0.0474857971551665 0.8001228138942134 1.0000   
         C         C         1.0       0.10053926615276083           0.01449195736328766          0.7958782234908542 1.0000   
         C         C         1.0       0.06834244606523426           0.003976483265708198         0.7898434847293009 1.0000   
         C         C         1.0       0.050355921098862395          0.02640713303044231          0.7908130272723747 1.0000   
         H         H         1.0       0.03685881080747736           0.5003239666221488 0.6109026673203324 1.0000   
         H         H         1.0       0.46670630741066266           0.4511184932845598 0.6802489127787649 1.0000   
         H         H         1.0       0.447681090129614   0.39719230619500756           0.6609589565195632 1.0000   
         H         H         1.0       0.02255590437795421           0.44135977895501194          0.5947640695170222 1.0000   
         H         H         1.0       0.46068601265703296           0.028109011914140624         0.6778096433911199 1.0000   
         H         H         1.0       0.41789605572466454           0.04668717805900015          0.6576227882693951 1.0000   
         H         H         1.0       0.464644311648941   0.06031806303202701           0.5789590275707167 1.0000   
         H         H         1.0       0.5064258478662071  0.04049858655308321           0.5993838942347232 1.0000   
         H         H         1.0       0.050736166216202305          0.48490481826610904          0.6968145203167428 1.0000   
         H         H         1.0       0.058817062894325804          0.4906698087578902 0.7482878272201334 1.0000   
         H         H         1.0       0.019029354958919477          0.06553819898842618          0.7492144210480971 1.0000   
         H         H         1.0       0.017348943246918165          0.06601866198090686          0.6979775432710609 1.0000   
         H         H         1.0       0.49118656468519617           0.42156909580871527          0.8539440872886742 1.0000   
         H         H         1.0       0.042180947938754404          0.5042486615468894 0.83254533613089   1.0000   
         H         H         1.0       0.46122246020623975           0.4476694555369152 0.764052153107445  1.0000   
         H         H         1.0       0.4365911471194036  0.3940702705342278  0.7830715729858317 1.0000   
         H         H         1.0       0.47637918487812253           0.03606343676652792          0.7543430123597941 1.0000   
         H         H         1.0       0.44417723609281207           0.06693709188459739          0.7768734790068147 1.0000   
         H         H         1.0       0.5054472041352932  0.07560376959803806           0.8493412513116443 1.0000   
         H         H         1.0       0.0134178058298201  0.03889382334263599           0.8416428052289727 1.0000   
         H         H         1.0       0.053446667962154984          0.07786922525162332          0.7957462526867829 1.0000   
         H         H         1.0       0.1128761987802796  0.09586705937784856           0.808298628164102  1.0000   
         H         H         1.0       0.11516833414322492           0.9979681870299899 0.7967146525709611 1.0000   
         H         H         1.0       0.08571396344372205           0.5021277396135727 0.7946755642867721 1.0000   
         C         C         1.0       0.22395383247797152           0.3131543479623071 0.4573584751398435 1.0000   
         C         C         1.0       0.21598591167188227           0.3415497846851979 0.46599353833228335          1.0000   
         C         C         1.0       0.21930852517634392           0.3678574871860449 0.4475064626883198 1.0000   
         C         C         1.0       0.22977793648886602           0.3661250847216985 0.42066069895724034          1.0000   
         C         C         1.0       0.23711873585495952           0.33718956207620304          0.41248139494607466          1.0000   
         C         C         1.0       0.235341244061946   0.31095081941601765           0.4308318513342244 1.0000   
         H         H         1.0       0.2083149894229442  0.34157981773985313           0.48758231071136277          1.0000   
         H         H         1.0       0.20930818819545502           0.3873688145680767 0.452698927981979  1.0000   
         H         H         1.0       0.2431126655493401  0.3363551228589491  0.39183218400907993          1.0000   
         H         H         1.0       0.24138510381014816           0.28864785036971824          0.42420475856207207          1.0000   
         C         C         1.0       0.29038932222708264           0.4045289032932681 0.3878036188658094 1.0000   
         C         C         1.0       0.25838538858968035           0.4013451919009432 0.37901514383354024          1.0000   
         C         C         1.0       0.25424939636229466           0.41172098850018785          0.3516930483984834 1.0000   
         C         C         1.0       0.28075471133124097           0.42251254071746136          0.33432504353805964          1.0000   
         C         C         1.0       0.31087345636916974           0.4250274569711731 0.344489457465866  1.0000   
         C         C         1.0       0.3155664725701134  0.4184215565390693  0.3711830031546415 1.0000   
         C         C         1.0       0.22912533040392946           0.3946394432389361 0.40051749224072697          1.0000   
         C         C         1.0       0.23558079443154545           0.43263027964446243          0.41258983396511667          1.0000   
         C         C         1.0       0.22692027055676056           0.4582452888489482 0.3982168154418838 1.0000   
         C         C         1.0       0.2356495088876072  0.4911821347835204  0.40825335531463014          1.0000   
         C         C         1.0       0.257077218504039   0.500247510792899   0.42960913090709113          1.0000   
         C         C         1.0       0.26863242190987374           0.47478835243102036          0.4413025235351332 1.0000   
         C         C         1.0       0.25826746494126507           0.4424146701854805 0.4340763546157924 1.0000   
         C         C         1.0       0.18427284846259692           0.3579073123787889 0.36651098228303913          1.0000   
         C         C         1.0       0.15226794158251358           0.3424917159262834 0.3615857524861882 1.0000   
         C         C         1.0       0.12812289666753096           0.3496309706526725 0.378291375437606  1.0000   
         C         C         1.0       0.13824137316676824           0.3745231632448288 0.39913007136484036          1.0000   
         C         C         1.0       0.16969405840074978           0.3883210530231202 0.4037481469117997 1.0000   
         C         C         1.0       0.19475366658608378           0.3825917913889532 0.3883408519570042 1.0000   
         C         C         1.0       0.09099966909734307           0.3352133822922597 0.3691783939755071 1.0000   
         C         C         1.0       0.09022434830244391           0.4208600437496108 0.3176196437819791 1.0000   
         C         C         1.0       0.09396840220212545           0.3923008564298223 0.3058223504241642 1.0000   
         C         C         1.0       0.09383101527349691           0.36575861186131264          0.32289875833750875          1.0000   
         C         C         1.0       0.08880467298107643           0.3661703360586973 0.35075716630228615          1.0000   
         C         C         1.0       0.08417937201078751           0.3951834033665694 0.3620010544842008 1.0000   
         C         C         1.0       0.08459149987276675           0.422812106325469  0.34570146399006063          1.0000   
         C         C         1.0       0.06904018305154937           0.3300166677250621 0.39580330234971606          1.0000   
         C         C         1.0       0.07734375006709272           0.3180232401013241 0.42124530646681196          1.0000   
         C         C         1.0       0.05827906431843465           0.3174065655782923 0.44368830670241527          1.0000   
         C         C         1.0       0.03128951977284398           0.32678956977722984          0.44121545424890196          1.0000   
         C         C         1.0       0.021100450547574968          0.3359406426236263 0.41585780286675667          1.0000   
         C         C         1.0       0.038366075299103   0.3331432058428593  0.39341542438120697          1.0000   
         C         C         1.0       0.04979938844555494           0.29203545191159147          0.34030453163134966          1.0000   
         C         C         1.0       0.032338251814575995          0.26021546765387304          0.33226921046180613          1.0000   
         C         C         1.0       0.04536886464729393           0.23346131106687656          0.3374295171809195 1.0000   
         C         C         1.0       0.07431098396577018           0.23951952231738127          0.3516202641466028 1.0000   
         C         C         1.0       0.09019242062762498           0.27200719797226014          0.3595422901480365 1.0000   
         C         C         1.0       0.07830819216383181           0.298228552045294  0.3562764040769586 1.0000   
         H         H         1.0       0.29574312098086974           0.3956011152051132 0.40854534049521846          1.0000   
         H         H         1.0       0.2303827266749751  0.41047296406041406           0.34651551753607096          1.0000   
         H         H         1.0       0.27875642886754887           0.4308363195176203 0.31403399180046215          1.0000   
         H         H         1.0       0.3405375334404521  0.42429652704954696           0.37902553505403   1.0000   
         H         H         1.0       0.21240546089844703           0.4531794845561912 0.38065600342258293          1.0000   
         H         H         1.0       0.22575562026062473           0.509698716672917  0.4000647505364824 1.0000   
         H         H         1.0       0.28285209135921496           0.4807534988501891 0.45847725925832666          1.0000   
         H         H         1.0       0.2662517526119579  0.42423207249566286           0.445757709576166  1.0000   
         H         H         1.0       0.20073689953666887           0.34857279523266743          0.3539298919408864 1.0000   
         H         H         1.0       0.1434950240751418  0.32609001773091945           0.3433554337607471 1.0000   
         H         H         1.0       0.12184821676379666           0.3845738851808763 0.4105141624398761 1.0000   
         H         H         1.0       0.1732743784576917  0.40157696819905037           0.4231928026927055 1.0000   
         H         H         1.0       0.09409530435910865           0.3898181215025377 0.2831020267221093 1.0000   
         H         H         1.0       0.09846503499019693           0.34540626107386024          0.31064034931927725          1.0000   
         H         H         1.0       0.08040897126753221           0.397000561290077  0.3843764606598635 1.0000   
         H         H         1.0       0.07776175092364933           0.44546408051980074          0.3534466790763467 1.0000   
         H         H         1.0       0.10151260343858129           0.31330470278787265          0.42291734378056656          1.0000   
         H         H         1.0       0.06667633887192238           0.3114445302056522 0.4634663709548317 1.0000   
         H         H         1.0       0.4786557399479775  0.3330071120772456  0.4044924071084202 1.0000   
         H         H         1.0       0.030420526550026236          0.33820626899765965          0.37384803732533983          1.0000   
         H         H         1.0       0.03929347434201751           0.31129808836180217          0.3354915326528584 1.0000   
         H         H         1.0       0.009973125788005077          0.2593824269147987 0.3221921033598853 1.0000   
         H         H         1.0       0.08444402587188127           0.21992481605531175          0.3554044259387945 1.0000   
         H         H         1.0       0.10917422834548876           0.27627080138583354          0.3734704414366504 1.0000   
         C         C         1.0       0.2594107125762233  0.3111061845446995  0.9864535905199012 1.0000   
         C         C         1.0       0.26528601079412567           0.31539558363317405          0.014934510386208553         1.0000   
         C         C         1.0       0.2545245799786016  0.3379243338062354  0.02908903751424746          1.0000   
         C         C         1.0       0.24405875841131539           0.3623707978670296 0.015392686585983814         1.0000   
         C         C         1.0       0.23634854170351818           0.358265484901621  0.9878212603259019 1.0000   
         C         C         1.0       0.24424855567661263           0.3321298262422612 0.9742602906724934 1.0000   
         H         H         1.0       0.27050881187774406           0.29490520743079435          0.026884001042563544         1.0000   
         H         H         1.0       0.2564671737670073  0.3361563378889975  0.05218924660786043          1.0000   
         H         H         1.0       0.22510874756544424           0.3747524726619407 0.9749841176252555 1.0000   
         H         H         1.0       0.2400718692702412  0.329211600227316   0.9532554223413785 1.0000   
         C         C         1.0       0.2651619136413173  0.43610066931267855           0.9943820556506859 1.0000   
         C         C         1.0       0.24279683732037696           0.42686149627624514          0.01573760953058909          1.0000   
         C         C         1.0       0.22842568090485324           0.4516370752741316 0.02498973042036094          1.0000   
         C         C         1.0       0.2331064897461536  0.4820686269482716  0.010990290301341224         1.0000   
         C         C         1.0       0.2499360515084913  0.48683148589041664           0.9870290917465779 1.0000   
         C         C         1.0       0.26824152493997927           0.46553088040990487          0.9803588418532623 1.0000   
         C         C         1.0       0.2368701906159738  0.3926409308674294  0.03225657685427228          1.0000   
         C         C         1.0       0.2641417359954622  0.4096559149387525  0.056125398838569276         1.0000   
         C         C         1.0       0.2568517351395145  0.4198535141126164  0.08211320880049566          1.0000   
         C         C         1.0       0.2796842359038331  0.43594772111509295           0.10075910628102086          1.0000   
         C         C         1.0       0.3113425513739882  0.44485835382113864           0.09488577824613813          1.0000   
         C         C         1.0       0.32043195387428386           0.43472453208794753          0.07027536131990093          1.0000   
         C         C         1.0       0.2975058095405403  0.4170678307934404  0.051424108263324636         1.0000   
         C         C         1.0       0.17717486616399034           0.3789115712500781 0.02346980074038871          1.0000   
         C         C         1.0       0.14495302041699026           0.3651980430006918 0.029875626475719643         1.0000   
         C         C         1.0       0.13563323422489765           0.3459565597931454 0.05391077646205265          1.0000   
         C         C         1.0       0.1600232329760062  0.3407239265933606  0.07005561850559866          1.0000   
         C         C         1.0       0.19143664166783517           0.3537479476914372 0.06375610686218747          1.0000   
         C         C         1.0       0.2009914893519492  0.37524250503890766           0.04128428375352869          1.0000   
         C         C         1.0       0.09955401818161735           0.3306812611829677 0.06386119989564958          1.0000   
         C         C         1.0       0.0908319394491291  0.4215871077208434  0.10540499349737008          1.0000   
         C         C         1.0       0.09213515324825025           0.41965813095920496          0.0775248316282524 1.0000   
         C         C         1.0       0.0956849855097391  0.39114241143753475           0.0644655810149566 1.0000   
         C         C         1.0       0.09931396611390389           0.36370431400728676          0.07944097603362235          1.0000   
         C         C         1.0       0.102065156909632   0.36818289087457623           0.10831329747235785          1.0000   
         C         C         1.0       0.09800935888378563           0.3965065369012873 0.12024033697191247          1.0000   
         C         C         1.0       0.0895472181601491  0.29637554587452175           0.08069070725110061          1.0000   
         C         C         1.0       0.10527825751483483           0.27204039436298466          0.07808890005960216          1.0000   
         C         C         1.0       0.09615560868883026           0.24323963829780387          0.09292233000902057          1.0000   
         C         C         1.0       0.06966274250294234           0.23690752165435677          0.10974695767776624          1.0000   
         C         C         1.0       0.05317064579659379           0.2603264873567702 0.11300634758377484          1.0000   
         C         C         1.0       0.06432385307225057           0.2898181332989075 0.09878271435993223          1.0000   
         C         C         1.0       0.04050883900677285           0.3235806241545999 0.04500109355390495          1.0000   
         C         C         1.0       0.017235236587821185          0.31480300230305236          0.025360130597180404         1.0000   
         C         C         1.0       0.02227910297655072           0.29821674231514245          0.001989380658530493         1.0000   
         C         C         1.0       0.05009856674580099           0.2898486340996799 0.9990872705633496 1.0000   
         C         C         1.0       0.07481770062358584           0.30298106484204196          0.01697701402094377          1.0000   
         C         C         1.0       0.07136321898458313           0.320623620727718  0.039814620745503355         1.0000   
         H         H         1.0       0.27964273302934917           0.42041249262417707          0.9894826417746857 1.0000   
         H         H         1.0       0.21552327684737066           0.44710514584489086          0.044496874024446985         1.0000   
         H         H         1.0       0.21860407026764636           0.49749528478445687          0.017241529508959165         1.0000   
         H         H         1.0       0.2827098408677465  0.4710345822473508  0.961923325073412  1.0000   
         H         H         1.0       0.232529700704146   0.41732506532259445           0.08916625042914088          1.0000   
         H         H         1.0       0.27240008092816015           0.4450054893387373 0.11924825150127506          1.0000   
         H         H         1.0       0.34529337145427325           0.4364086252360386 0.06590693959207874          1.0000   
         H         H         1.0       0.3071993539708559  0.4058013141855519  0.03472710021889999          1.0000   
         H         H         1.0       0.18063957312688225           0.3917257646929296 0.003488293512537543         1.0000   
         H         H         1.0       0.1276645035757357  0.37086358029857563           0.015634591515514745         1.0000   
         H         H         1.0       0.15275635915471714           0.326083068104159  0.08913245820991733          1.0000   
         H         H         1.0       0.20797581776515364           0.34880961270332184          0.07895326907932454          1.0000   
         H         H         1.0       0.09007934535855905           0.43972521627530614          0.06373424094412315          1.0000   
         H         H         1.0       0.09503077132140875           0.39026358740097533          0.04217561665020358          1.0000   
         H         H         1.0       0.10440277656601481           0.34922211979014595          0.12332102195796274          1.0000   
         H         H         1.0       0.09809595857901211           0.39784332752407187          0.14153299719137574          1.0000   
         H         H         1.0       0.12397528905741154           0.276253271762369  0.06350703613179831          1.0000   
         H         H         1.0       0.1079196869215364  0.22512873979411835           0.09150281518106548          1.0000   
         H         H         1.0       0.033848735330750786          0.25622778669763835          0.12775128186053153          1.0000   
         H         H         1.0       0.04945092607174264           0.30674467011097667          0.10033995697886247          1.0000   
         H         H         1.0       0.036375804727798125          0.33626999718191364          0.06402208149732291          1.0000   
         H         H         1.0       0.4844446248457734  0.33280154722096195           0.027344761641511707         1.0000   
         H         H         1.0       0.05380932107533751           0.2775829484787051 0.9808319904483445 1.0000   
         H         H         1.0       0.09874231760959798           0.3001157363707951 0.012727256284021275         1.0000   
         C         C         1.0       0.3877557831868801  0.49487770571935563           0.32271295129866656          1.0000   
         C         C         1.0       0.36630092419032556           0.028942883768993833         0.27986924394982526          1.0000   
         C         C         1.0       0.4002108122583236  0.039509384589414186         0.2743942341568238 1.0000   
         C         C         1.0       0.4226524066256325  0.028798878154102092         0.28811020507697555          1.0000   
         C         C         1.0       0.4437767823869227  0.509047135299545   0.31971878831220535          1.0000   
         C         C         1.0       0.4162319672049373  0.49283592490517936           0.3337768847575335 1.0000   
         H         H         1.0       0.34922478455054906           0.034983872297015245         0.26781096928769066          1.0000   
         H         H         1.0       0.4078309563156182  0.05742391752022995           0.2574481097709403 1.0000   
         H         H         1.0       0.466614832024611   0.5102821194145148  0.3274659892321165 1.0000   
         H         H         1.0       0.4189629890269305  0.47883106065060665           0.35273194927051804          1.0000   
         C         C         1.0       0.9794078680212633  0.4699871344042373  0.29187570922281514          1.0000   
         C         C         1.0       0.47813659004010295           0.013121208856754897         0.28659770801438167          1.0000   
         C         C         1.0       0.02642081365189517           0.5166195292592394 0.2893812875381503 1.0000   
         C         C         1.0       0.0452602414429019  0.49463113497232175           0.2883869016486682 1.0000   
         C         C         1.0       0.030174371822651095          0.46182808960613503          0.29250670506226034          1.0000   
         C         C         1.0       0.9977067537495691  0.4487917382447069  0.2945050551480792 1.0000   
         C         C         1.0       0.4602695913013714  0.03934567817242351           0.27604130540048494          1.0000   
         C         C         1.0       0.9844570772244537  0.07877763037081383           0.29001064103662527          1.0000   
         C         C         1.0       0.016296830273594142          0.09338616731866871          0.29586943131537163          1.0000   
         C         C         1.0       0.03025801365931927           0.12757067858628113          0.29960343968200637          1.0000   
         C         C         1.0       0.011411518506299395          0.1477093155454326 0.29438773890536374          1.0000   
         C         C         1.0       0.9801864735124148  0.13450240003278066           0.2870318405648507 1.0000   
         C         C         1.0       0.46439867527378237           0.10371061206144494          0.2917896062080309 1.0000   
         C         C         1.0       0.4387514791287518  0.015876108280372128         0.22841727796899558          1.0000   
         C         C         1.0       0.43842991298200173           0.015005432972486408         0.20096165232514865          1.0000   
         C         C         1.0       0.45863162902613597           0.04042226327178796          0.18543020445169223          1.0000   
         C         C         1.0       0.48355234868115976           0.06451100638053488          0.1991379252554851 1.0000   
         C         C         1.0       0.4844175505532093  0.06364625975331543           0.2272215582700216 1.0000   
         C         C         1.0       0.46199370637136034           0.03971430893466779          0.2427568614838056 1.0000   
         C         C         1.0       0.4566070891281982  0.04273815859412606           0.15251278464589005          1.0000   
         C         C         1.0       0.0369172697914214  0.46291679250434686           0.14846812176704596          1.0000   
         C         C         1.0       0.5074375233938248  0.4704529916713763  0.16023759593420617          1.0000   
         C         C         1.0       0.488088736900343   0.4911189245667392  0.15829758269395178          1.0000   
         C         C         1.0       0.4774628329689031  0.01869102743210148           0.14476104886996338          1.0000   
         C         C         1.0       0.025060017197134046          0.024268948243698317         0.15637971744763313          1.0000   
         C         C         1.0       0.03936376627796767           0.9989349173654203 0.15708244705143484          1.0000   
         C         C         1.0       0.47266572054453965           0.08121287504487187          0.14133090378201138          1.0000   
         C         C         1.0       0.4654301155981685  0.1076084337627447  0.153458539015602  1.0000   
         C         C         1.0       0.47763372970580353           0.13982400613802629          0.14332290058488492          1.0000   
         C         C         1.0       0.49731884259714987           0.14590818802803873          0.11983034097689232          1.0000   
         C         C         1.0       0.5053566304474434  0.12023914240857969           0.10803955161023367          1.0000   
         C         C         1.0       0.49169328371000437           0.08810911483734332          0.11769290693193826          1.0000   
         C         C         1.0       0.4139286373546525  0.0241976609419283  0.11387283899266364          1.0000   
         C         C         1.0       0.3841421307880989  0.016217503003873295         0.10290977505863064          1.0000   
         C         C         1.0       0.38733671801945374           0.5166720987108359 0.11753787312688266          1.0000   
         C         C         1.0       0.3627400652165854  0.02179959170420564           0.14696792490233124          1.0000   
         C         C         1.0       0.39205960817507013           0.02951656959859745          0.15784848462226211          1.0000   
         C         C         1.0       0.41980956639185213           0.03333465468866703          0.14121481512955283          1.0000   
         H         H         1.0       0.003189308546343222          0.032989209916143125         0.32897587688502905          1.0000   
         H         H         1.0       0.5447013769636572  0.5655576683296333  0.28448819706610246          1.0000   
         H         H         1.0       0.0714578297657889  0.5060736290931455  0.28376843526070267          1.0000   
         H         H         1.0       0.9875012416443855  0.42212272885372837           0.30019220708154465          1.0000   
         H         H         1.0       0.033748724124323004          0.08084612981389978          0.29715269465174954          1.0000   
         H         H         1.0       0.05496110703734244           0.1388940338007769 0.3042893092660841 1.0000   
         H         H         1.0       0.9645840927768639  0.1501396853003751  0.2817913694236882 1.0000   
         H         H         1.0       0.4405497228851503  0.09931913780233581           0.28891880135106884          1.0000   
         H         H         1.0       0.4275201045868375  0.506869543766537   0.23530373061535811          1.0000   
         H         H         1.0       0.43692972777439054           0.5081522445409198 0.18856593747566747          1.0000   
         H         H         1.0       0.024045119398868036          0.06970120733200531          0.19592455827581268          1.0000   
         H         H         1.0       0.02456187441146018           0.06480826775176979          0.2453233021792732 1.0000   
         H         H         1.0       0.4970227402668049  0.4425296423520439  0.16404999341527884          1.0000   
         H         H         1.0       0.46317098042825994           0.4838887829877884 0.16212586802876328          1.0000   
         H         H         1.0       0.03917395296793128           0.05064034850835766          0.15753725244095407          1.0000   
         H         H         1.0       0.0653924328417976  0.0063257307057662405        0.15413045490308508          1.0000   
         H         H         1.0       0.44970645623156463           0.10281336159370594          0.1707554615760713 1.0000   
         H         H         1.0       0.47110131889703194           0.16023025877284375          0.15276597240170317          1.0000   
         H         H         1.0       0.5222273210718363  0.12314631664662036           0.09181453113006592          1.0000   
         H         H         1.0       0.4999944489241232  0.06941439991333953           0.10770761845209781          1.0000   
         H         H         1.0       0.4322702248707725  0.02273160255334012           0.09949089925679827          1.0000   
         H         H         1.0       0.4088771673292136  0.4897517622420336  0.08884166763761871          1.0000   
         H         H         1.0       0.34234880236649035           0.016843700093472573         0.1613614257386357 1.0000   
         H         H         1.0       0.3928124272017293  0.03519329049947425           0.18024634236268877          1.0000   
         C         C         1.0       0.5118611623788992  0.18108730886372804           0.1063723293119911 1.0000   
         C         C         1.0       0.05789974157842406           0.2026702538605407 0.1255798050567862 1.0000   
         H         H         1.0       0.05306097783860977           0.17297170028561226          0.08826976173564643          1.0000   
         H         H         1.0       0.49378299750390314           0.19078551888818393          0.09573622942597622          1.0000   
         H         H         1.0       0.04418855739631815           0.20431349738148627          0.14454709720489084          1.0000   
         H         H         1.0       0.0789243745022522  0.19778898463309602           0.13397360751548817          1.0000   
         C         C         1.0       0.338566738317227   0.46550868321536953           0.114009892579419  1.0000   
         C         C         1.0       0.35597528624838315           0.5027067788015083 0.10419560337298092          1.0000   
         H         H         1.0       0.30636563197163014           0.9498189805035092 0.13422206887070895          1.0000   
         H         H         1.0       0.3327724097761196  0.9465974851690072  0.10818267151594424          1.0000   
         H         H         1.0       0.3397757571442904  0.5173857909375537  0.10935769193064519          1.0000   
         H         H         1.0       0.35649501318786314           0.5038028143496421 0.08163880817192533          1.0000   
         C         C         1.0       0.0791170834135902  0.4504239513614199  0.11746508420776797          1.0000   
         C         C         1.0       0.05747515008770562           0.4393150161306566 0.14303628163719606          1.0000   
         H         H         1.0       0.09844518413164562           0.4733483652788485 0.12214320992613041          1.0000   
         H         H         1.0       0.06405342034394919           0.4572780035712603 0.10061873827605258          1.0000   
         H         H         1.0       0.04336141471298193           0.4135158730824181 0.13994918336194542          1.0000   
         H         H         1.0       0.07271885035884987           0.43876920124279445          0.1607407428705684 1.0000   
         C         C         1.0       0.35705439779644627           0.4777901154075148 0.337950756195094  1.0000   
         C         C         1.0       0.3417235913375183  0.44049624112392566           0.3287854817040452 1.0000   
         H         H         1.0       0.36110029561741047           0.4799846961618736 0.3605720688798806 1.0000   
         H         H         1.0       0.30558175028924955           0.013773583437482962         0.3029802395300812 1.0000   
         H         H         1.0       0.3378888400644176  0.441042465464581   0.3061345300629345 1.0000   
         H         H         1.0       0.359783799259008   0.42656944782733225           0.3306206642017736 1.0000   
         C         C         1.0       0.02709204212350659           0.19668560652782768          0.32940080539099215          1.0000   
         C         C         1.0       0.025407337838943906          0.18608465872346935          0.298425190621602  1.0000   
         H         H         1.0       0.0027125039518024674         0.18909874778310737          0.33867294733128195          1.0000   
         H         H         1.0       0.03699039684955404           0.17835802111830343          0.3397403882666631 1.0000   
         H         H         1.0       0.05105758446720363           0.19442470847410698          0.28934976738275603          1.0000   
         H         H         1.0       0.011172895476799944          0.1997082989637832 0.2866378875464904 1.0000   
         C         C         1.0       0.05002082657344786           0.43635886280863434          0.28967968260127497          1.0000   
         C         C         1.0       0.08436837168212896           0.4474815037354854 0.30028656036016377          1.0000   
         H         H         1.0       0.0360971295841351  0.4120537912558152  0.29972940023512057          1.0000   
         H         H         1.0       0.05291490750810385           0.4300652538797943 0.2672118810212366 1.0000   
         H         H         1.0       0.10064721061002097           0.4538382453852671 0.2829512705902451 1.0000   
         H         H         1.0       0.08766827399606889           0.4703415502897828 0.31248631578691255          1.0000   
         C         C         1.0       0.22771370360739832           0.01897883102268224          0.48128417635887927          1.0000   
         C         C         1.0       0.25193832519688175           0.023621045159608133         0.4575008393684978 1.0000   
         H         H         1.0       0.22880048575585676           0.9990490905054745 0.49588535184318877          1.0000   
         H         H         1.0       0.2017058696692298  0.009470508320166403         0.4727350800538487 1.0000   
         H         H         1.0       0.27799798080938776           0.037561789863447194         0.46403248805171193          1.0000   
         H         H         1.0       0.24485076235333336           0.04121790350838554          0.4448773336662405 1.0000   
         C         C         1.0       0.456076772545789   0.26895972524582373           0.4523210781988773 1.0000   
         C         C         1.0       0.007914669869775851          0.3235437496701121 0.4647033459088362 1.0000   
         H         H         1.0       0.466700673120276   0.25023863161522175           0.44311046666740816          1.0000   
         H         H         1.0       0.436669922491259   0.2698669056611691  0.4389661141021047 1.0000   
         H         H         1.0       0.47317045112017    0.32654630256530964           0.4519351439217004 1.0000   
         H         H         1.0       0.020468897506118185          0.3295072177464001 0.4844916675594726 1.0000   
         C         C         1.0       0.2176084787708004  0.2826381112541751  0.4759164873296136 1.0000   
         C         C         1.0       0.2477439236946583  0.27523998316841003           0.4852055373472894 1.0000   
         H         H         1.0       0.20019943711032412           0.2603512838610032 0.46670471442846984          1.0000   
         H         H         1.0       0.20535468265855003           0.2860880988634426 0.49574849735970317          1.0000   
         H         H         1.0       0.2590681124514944  0.297060611288001   0.4992214463025552 1.0000   
         H         H         1.0       0.26569226864674916           0.27836600767315944          0.46821319884651663          1.0000   
         C         C         1.0       0.4145819100759653  0.07308627312648944           0.6057198613754169 1.0000   
         C         C         1.0       0.4305267046703007  0.11175969260590839           0.6105930184688964 1.0000   
         H         H         1.0       0.41251833254222714           0.06820253830405847          0.5832855877195073 1.0000   
         H         H         1.0       0.3908191467839215  0.06443010647369675           0.6162851000413302 1.0000   
         H         H         1.0       0.4562313988117113  0.11767849047958188           0.6041479306129427 1.0000   
         H         H         1.0       0.4336614931808085  0.11259255413623337           0.6330734657253474 1.0000   
         C         C         1.0       0.14151047412219175           0.061951905386966086         0.6262530080123305 1.0000   
         C         C         1.0       0.16732293392432154           0.09415886844280114          0.6367577321387144 1.0000   
         H         H         1.0       0.14950924526563344           0.038904674911489925         0.6269374376344401 1.0000   
         H         H         1.0       0.13860765045056112           0.06354957795636923          0.6049976876182954 1.0000   
         H         H         1.0       0.1803993974953352  0.0889899367495498  0.654425678437911  1.0000   
         H         H         1.0       0.15526971765713302           0.1124828307756918 0.6419893518580584 1.0000   
         C         C         1.0       0.4371835668948328  0.34399806060865695           0.6282433842341884 1.0000   
         C         C         1.0       0.45938865161857995           0.3735496706817231 0.6085630044906372 1.0000   
         H         H         1.0       0.4493386713456433  0.33855647392053384           0.6473484008096309 1.0000   
         H         H         1.0       0.4165648167837163  0.3513157048842726  0.6372903579040415 1.0000   
         H         H         1.0       0.44646390448467693           0.3773781384169479 0.5907686855443286 1.0000   
         H         H         1.0       0.4789094160780431  0.3657490938775448  0.5993202246815915 1.0000   
         C         C         1.0       0.46971117918344923           0.27066541605999817          0.9823180735048554 1.0000   
         C         C         1.0       0.4950820779477895  0.30510946997173655           0.9797623232379974 1.0000   
         H         H         1.0       0.44949193247674857           0.2735221651278323 0.9954703703418976 1.0000   
         H         H         1.0       0.48092970531933155           0.25257464499689125          0.9929164060389786 1.0000   
         H         H         1.0       0.9746217215541501  0.27075481773077675           0.994450490294595  1.0000   
         H         H         1.0       0.48571836430532167           0.3255806545334728 0.9760048119227872 1.0000   
         C         C         1.0       0.2377757691572034  0.029805463451713653         0.9762983002474931 1.0000   
         C         C         1.0       0.22292271658800447           0.9960553348929496 0.9622158572994309 1.0000   
         H         H         1.0       0.26104494379300264           0.03018698408624684          0.9850138570756015 1.0000   
         H         H         1.0       0.22083564223558777           0.03342348802156242          0.9919262402876196 1.0000   
         H         H         1.0       0.1979102966648107  0.9947470068706941  0.9550556341358617 1.0000   
         H         H         1.0       0.23579821836120848           0.992927717289401  0.9434506649198252 1.0000   
         C         C         1.0       0.23397916405711638           0.2572510411416482 0.9600952182904956 1.0000   
         C         C         1.0       0.2661017705079456  0.28195491910079595           0.9700020211110585 1.0000   
         H         H         1.0       0.2201501567422888  0.26939365987697317           0.9468920634781383 1.0000   
         H         H         1.0       0.21823262633362664           0.24769398860183753          0.9778353613488173 1.0000   
         H         H         1.0       0.28049201087821646           0.27064074660464194          0.9826330559704479 1.0000   
         H         H         1.0       0.28213444577521873           0.29246056559148376          0.9531961784859108 1.0000   
         C         C         1.0       0.4589957441837927  0.099813987813521   0.8277947702689858 1.0000   
         C         C         1.0       0.42167842955377    0.09225101059283095           0.8294132645172191 1.0000   
         H         H         1.0       0.4690239674668176  0.10760077318968621           0.8474016831116195 1.0000   
         H         H         1.0       0.4683378770861419  0.12437617693099727           0.8151972546308814 1.0000   
         H         H         1.0       0.4114283891892102  0.07096098144140278           0.8433879991708301 1.0000   
         H         H         1.0       0.4085119890985283  0.08554556036100994           0.8098646869798152 1.0000   
         C         C         1.0       0.150796372691733   0.057956774556185295         0.8127531409188459 1.0000   
         C         C         1.0       0.17700695025460259           0.09003396020357514          0.8032142063377312 1.0000   
         H         H         1.0       0.14811419502086062           0.053942120441807094         0.8348353849239538 1.0000   
         H         H         1.0       0.15917060787082074           0.036351829259736526         0.8083219457543838 1.0000   
         H         H         1.0       0.16664019689447743           0.10935871841290715          0.7924078751643964 1.0000   
         H         H         1.0       0.18953114859111128           0.0849281308650996 0.7855089964849156 1.0000   
         C         C         1.0       0.4476270256699018  0.3707660118823571  0.8357171278235214 1.0000   
         C         C         1.0       0.44233129510387653           0.34192111738461844          0.8145703832695197 1.0000   
         H         H         1.0       0.46232043316232335           0.3679238210035296 0.8546240242920985 1.0000   
         H         H         1.0       0.42395983455108044           0.36748166383642356          0.8430479712409112 1.0000   
         H         H         1.0       0.464589905390801   0.3434025082329245  0.8025635395512913 1.0000   
         H         H         1.0       0.42544985758324483           0.34267961897015653          0.7981202051145049 1.0000   
         C         C         1.0       0.443472915438908   0.6542713491333698  0.8280198872561771 1.0000   
         C         C         1.0       0.44991222250472934           0.6600923708398327 0.8551265149700543 1.0000   
         C         C         1.0       0.44178282249214657           0.6864069325680443 0.8676668043156622 1.0000   
         C         C         1.0       0.42749522495218895           0.7064919365647475 0.8539351939591108 1.0000   
         C         C         1.0       0.4200194654282028  0.6982698705730941  0.8268848983729912 1.0000   
         C         C         1.0       0.4262425111769828  0.6713693359341654  0.8137522982035854 1.0000   
         H         H         1.0       0.4593581432727182  0.644154373350319   0.8669504537459058 1.0000   
         H         H         1.0       0.4446962181614754  0.6911494794059784  0.8886058857895477 1.0000   
         H         H         1.0       0.40402020799578764           0.7089148105170421 0.8152647638865873 1.0000   
         H         H         1.0       0.42309680846893116           0.6678521910289724 0.7916520492795733 1.0000   
         C         C         1.0       0.4438869109935884  0.7795574860653126  0.826656758522518  1.0000   
         C         C         1.0       0.4210580706673363  0.7707834472060919  0.8475316908265003 1.0000   
         C         C         1.0       0.40230546298584124           0.7914905601096505 0.8518427197465623 1.0000   
         C         C         1.0       0.40536863228746456           0.8199165805739843 0.8377080144303345 1.0000   
         C         C         1.0       0.42913436980849357           0.8281771017383358 0.8174700541517697 1.0000   
         C         C         1.0       0.4495130365966363  0.8083369300553196  0.812416216681043  1.0000   
         C         C         1.0       0.4190422120626622  0.7385950848656928  0.867295211621506  1.0000   
         C         C         1.0       0.4416697725888482  0.7570056323735113  0.891940736895043  1.0000   
         C         C         1.0       0.42905329177824403           0.7699820847110115 0.914613362050502  1.0000   
         C         C         1.0       0.44862724218675004           0.7835300197487378 0.9374185668093503 1.0000   
         C         C         1.0       0.48155991672922005           0.7852579221575424 0.9373243941774351 1.0000   
         C         C         1.0       0.4945301281976064  0.7762282079116374  0.913386980041117  1.0000   
         C         C         1.0       0.4740849260259235  0.7597069347611025  0.8932839814220574 1.0000   
         C         C         1.0       0.3572150143457707  0.7163661596948683  0.8606865911406382 1.0000   
         C         C         1.0       0.3273305992852529  0.7015135924932651  0.8687498192299525 1.0000   
         C         C         1.0       0.31956041534711604           0.6857088355826577 0.8950830933547105 1.0000   
         C         C         1.0       0.34564923655133334           0.6849466166021123 0.911329876318272  1.0000   
         C         C         1.0       0.37543796902320614           0.6994674307340487 0.9021041818861495 1.0000   
         C         C         1.0       0.382957900026745   0.7181344769710005  0.8770957240107164 1.0000   
         C         C         1.0       0.283274792668775   0.6673657888868451  0.9056540671129281 1.0000   
         C         C         1.0       0.26774602158906446           0.7543964064185243 0.9485581317939077 1.0000   
         C         C         1.0       0.2576443409094647  0.7483986305720368  0.92231773042486   1.0000   
         C         C         1.0       0.2630350780428933  0.7204068047565167  0.9085839887262418 1.0000   
         C         C         1.0       0.27737769943612317           0.6983461100651867 0.9210793406569286 1.0000   
         C         C         1.0       0.28640410445752995           0.7049154664649798 0.9489258259990279 1.0000   
         C         C         1.0       0.28172461131400395           0.732075119307213  0.962207295461206  1.0000   
         C         C         1.0       0.27666683224690114           0.6326962349719697 0.9235237328725736 1.0000   
         C         C         1.0       0.29310930240864114           0.6097602871586439 0.9178646950989088 1.0000   
         C         C         1.0       0.28937451403747627           0.5825678354671767 0.9348033928196522 1.0000   
         C         C         1.0       0.2697648518449557  0.5777383027978665  0.9576172026298508 1.0000   
         C         C         1.0       0.25378302094349586           0.6004045447463463 0.9631399918231707 1.0000   
         C         C         1.0       0.2560599096324325  0.6270338650398077  0.9458232144087426 1.0000   
         C         C         1.0       0.22285345638654366           0.6452398348899707 0.8884069331734726 1.0000   
         C         C         1.0       0.19927641862885062           0.6261603874691124 0.8713631993069778 1.0000   
         C         C         1.0       0.20866730280645648           0.608968731890034  0.8503566207478791 1.0000   
         C         C         1.0       0.24036947796469949           0.6117870253173479 0.8459361425095429 1.0000   
         C         C         1.0       0.2633959795208741  0.6320823668900741  0.8622225409823034 1.0000   
         C         C         1.0       0.255796127438704   0.6508850535277738  0.8837922248240208 1.0000   
         H         H         1.0       0.4602358615982496  0.7648783898345481  0.8239318261090386 1.0000   
         H         H         1.0       0.38680229077640194           0.7892642414891513 0.8693274891707955 1.0000   
         H         H         1.0       0.3928088846059529  0.8371573148137411  0.8422090983155543 1.0000   
         H         H         1.0       0.46513819534595474           0.8127308407962011 0.7949358860645362 1.0000   
         H         H         1.0       0.4048693286828199  0.7711790732609175  0.913218445114081  1.0000   
         H         H         1.0       0.43895060389989893           0.7942870860371316 0.9550112760934669 1.0000   
         H         H         1.0       0.5197268625216116  0.7789815705949459  0.9118660330672871 1.0000   
         H         H         1.0       0.4847055764569025  0.7522662117949263  0.8746236703285257 1.0000   
         H         H         1.0       0.3599733129880928  0.7285804120770581  0.8412673215418289 1.0000   
         H         H         1.0       0.3084837909744211  0.7010553902015451  0.8527350368553235 1.0000   
         H         H         1.0       0.34280288561348043           0.6726952978181132 0.9314967112485997 1.0000   
         H         H         1.0       0.3933980010255073  0.6993823533555071  0.9171976756014703 1.0000   
         H         H         1.0       0.24301053143965914           0.7626286790169232 0.9127060503413147 1.0000   
         H         H         1.0       0.2558562065541514  0.7158021014555914  0.8867296464960978 1.0000   
         H         H         1.0       0.29709174597595095           0.6884178235692686 0.9608969552334049 1.0000   
         H         H         1.0       0.2897274153929342  0.7355914603743988  0.9841916041168521 1.0000   
         H         H         1.0       0.3109523064639734  0.6134666767040867  0.9009166728982527 1.0000   
         H         H         1.0       0.30200339664726333           0.5663616553448679 0.9300358969019197 1.0000   
         H         H         1.0       0.23529407320153792           0.592825587105089  0.978043671706053  1.0000   
         H         H         1.0       0.2425239655494836  0.6449476726618222  0.9494011958491773 1.0000   
         H         H         1.0       0.2161162233383454  0.6575206106140877  0.9057597727899478 1.0000   
         H         H         1.0       0.1747824056526193  0.620720188418916   0.8773114302099567 1.0000   
         H         H         1.0       0.2488771396175973  0.6013838428643352  0.8269145081151454 1.0000   
         H         H         1.0       0.288570831064012   0.635581356884109   0.856482095260061  1.0000   
         C         C         1.0       0.43627026491758003           0.6439195088234316 0.6093769929821679 1.0000   
         C         C         1.0       0.41657582209071137           0.6585761810063162 0.6218346431542141 1.0000   
         C         C         1.0       0.4093166666460851  0.6848528896682946  0.6098341590644176 1.0000   
         C         C         1.0       0.420836999821614   0.6981795310602206  0.5838043366714314 1.0000   
         C         C         1.0       0.4389046582263907  0.6813084295283154  0.5703595173213919 1.0000   
         C         C         1.0       0.44880131299310755           0.6568627813753432 0.5841032527636116 1.0000   
         H         H         1.0       0.4065452353944463  0.651129421112308   0.6424842208627396 1.0000   
         H         H         1.0       0.3962409636179962  0.6973331165005383  0.6216015732880509 1.0000   
         H         H         1.0       0.4496932812357105  0.6884027929349242  0.5495354194303336 1.0000   
         H         H         1.0       0.4681658627248626  0.6497199750021737  0.5742447705129645 1.0000   
         C         C         1.0       0.4714714968007714  0.750478850265582   0.5509361331771456 1.0000   
         C         C         1.0       0.4390200518494296  0.7460675521607056  0.5476917170647995 1.0000   
         C         C         1.0       0.42857965995239977           0.7589016449702825 0.5252274008985299 1.0000   
         C         C         1.0       0.44879833725662055           0.7748137322282821 0.5046112519050799 1.0000   
         C         C         1.0       0.4811280521225432  0.7782899458429666  0.5067985104936378 1.0000   
         C         C         1.0       0.4921660551323631  0.7687371767272172  0.5307482811260116 1.0000   
         C         C         1.0       0.4121993803758451  0.7287338795303772  0.5698323352799868 1.0000   
         C         C         1.0       0.4181881950209716  0.7593957984514665  0.5894205228011133 1.0000   
         C         C         1.0       0.4005162619053399  0.781643430472092   0.5844019609695694 1.0000   
         C         C         1.0       0.4030974241260676  0.8091981865748137  0.6010639324719377 1.0000   
         C         C         1.0       0.4246602978509468  0.815909754216809   0.6228009555143825 1.0000   
         C         C         1.0       0.4440081960543998  0.7966337571830753  0.6264448604827472 1.0000   
         C         C         1.0       0.43998606835673437           0.7687180726591567 0.6116731917338455 1.0000   
         C         C         1.0       0.3712854206224368  0.6904733187416714  0.5368498642453085 1.0000   
         C         C         1.0       0.3411813997131428  0.6740133133464907  0.5285344014344212 1.0000   
         C         C         1.0       0.3148998903948303  0.6753782043402826  0.5431136668837009 1.0000   
         C         C         1.0       0.31931181485158955           0.6932744919773237 0.5681835599031806 1.0000   
         C         C         1.0       0.3500014397106048  0.709999914707703   0.5766737042350886 1.0000   
         C         C         1.0       0.3766769876114234  0.7105560420228396  0.5601651622285638 1.0000   
         C         C         1.0       0.278926964831817   0.6610357074308547  0.5308194565028223 1.0000   
         C         C         1.0       0.2783115728543111  0.7524284006112184  0.48688855472982584          1.0000   
         C         C         1.0       0.2876404136231643  0.7277697194606328  0.47409404884458234          1.0000   
         C         C         1.0       0.2880904018807608  0.7009434858185918  0.4877862552454248 1.0000   
         C         C         1.0       0.28053062519056554           0.6962780355705969 0.5152063681241088 1.0000   
         C         C         1.0       0.2739520394856092  0.7230675038531199  0.5284850147502166 1.0000   
         C         C         1.0       0.2722466429988637  0.7510866147120009  0.5141556207133213 1.0000   
         C         C         1.0       0.25159267076265607           0.6477365414197094 0.5523527206770775 1.0000   
         C         C         1.0       0.25527127464236216           0.6313581011241678 0.5764177241293996 1.0000   
         C         C         1.0       0.2329881651520664  0.6221012139694438  0.5967940761618858 1.0000   
         C         C         1.0       0.20277745547231732           0.6245071524826005 0.5927138466321773 1.0000   
         C         C         1.0       0.19620058188802467           0.6386065493158184 0.5691339418719784 1.0000   
         C         C         1.0       0.22109199867509913           0.651176797691432  0.5493923445917673 1.0000   
         C         C         1.0       0.24799336827735335           0.6222136468891166 0.49337114803878834          1.0000   
         C         C         1.0       0.240192020259687   0.59425809113657    0.4769912077353484 1.0000   
         C         C         1.0       0.25211983556346823           0.5675480370222405 0.4827636108652359 1.0000   
         C         C         1.0       0.2736848159437303  0.5705608366447538  0.503931975310905  1.0000   
         C         C         1.0       0.2833809284546826  0.6010138638327932  0.5184583023123653 1.0000   
         C         C         1.0       0.27030739615072785           0.6270983416510844 0.5129135091156671 1.0000   
         H         H         1.0       0.4808028887563248  0.740040474234641   0.5685836589089073 1.0000   
         H         H         1.0       0.404492824546927   0.761237179914843   0.5254651714346344 1.0000   
         H         H         1.0       0.44058063175162326           0.7852493320002046 0.4872540356039905 1.0000   
         H         H         1.0       0.5168761491220265  0.7713983489994077  0.53072265612266   1.0000   
         H         H         1.0       0.38516148515359994           0.7797339665117738 0.5685281803801341 1.0000   
         H         H         1.0       0.3876657029117793  0.8277931424896259  0.595523331597895  1.0000   
         H         H         1.0       0.4612210031238213  0.8002106300242654  0.6433539391829762 1.0000   
         H         H         1.0       0.45794338308799915           0.7551876673488594 0.6159158741864414 1.0000   
         H         H         1.0       0.39220271974323706           0.684599570027491  0.5284953015986888 1.0000   
         H         H         1.0       0.33840656422031795           0.6590140491779726 0.509904524376939  1.0000   
         H         H         1.0       0.2992206064079899  0.6947045582861606  0.5804203650982077 1.0000   
         H         H         1.0       0.3531935535902346  0.7234927926104285  0.5964320518588483 1.0000   
         H         H         1.0       0.294846332952364   0.7302320244377697  0.45318157151843186          1.0000   
         H         H         1.0       0.2958290617064021  0.6824504783188657  0.4774362127310544 1.0000   
         H         H         1.0       0.26692309175908513           0.7235424476886461 0.550671473614464  1.0000   
         H         H         1.0       0.2640684116504499  0.7707864631446785  0.5238285221534774 1.0000   
         H         H         1.0       0.27695019474424676           0.6256011131064741 0.5826592623129662 1.0000   
         H         H         1.0       0.23853189735534328           0.6148659315945559 0.6175707091761274 1.0000   
         H         H         1.0       0.17287829157494178           0.6427772750863696 0.5659250791171035 1.0000   
         H         H         1.0       0.21381684761292552           0.6629352917274017 0.5313893805295902 1.0000   
         H         H         1.0       0.23723363571317807           0.6406188190097516 0.48932494155139494          1.0000   
         H         H         1.0       0.22810837240883974           0.5976834792351743 0.4585830106460275 1.0000   
         H         H         1.0       0.28285849141934005           0.5508018818932077 0.5085281440388879 1.0000   
         H         H         1.0       0.3040790037127966  0.6071465126582057  0.5333998473520974 1.0000   
         C         C         1.0       0.1229393680170291  0.5705836424305842  0.6313711521036287 1.0000   
         C         C         1.0       0.10513735421314367           0.5918182862048514 0.6384115877070536 1.0000   
         C         C         1.0       0.07601317832293104           0.5777231089224014 0.6497531756250643 1.0000   
         C         C         1.0       0.06413953492259501           0.5434138928467882 0.6549042515278413 1.0000   
         C         C         1.0       0.08689087039128159           0.5254885536013012 0.6532490141740922 1.0000   
         C         C         1.0       0.11497127625458572           0.5378014189931883 0.6391203405313952 1.0000   
         H         H         1.0       0.1123370788126574  0.6177692994810092  0.6311102362766697 1.0000   
         H         H         1.0       0.059883591901827064          0.592558137141595  0.6500074066265237 1.0000   
         H         H         1.0       0.05729707392890192           0.9843308573195682 0.6719685084856566 1.0000   
         H         H         1.0       0.1294933431634657  0.5217453274730762  0.6322155118203796 1.0000   
         C         C         1.0       0.009272305687288429          0.9602146211292442 0.6283923865482662 1.0000   
         C         C         1.0       0.9953637519261637  0.9707528039683957  0.6507616055317255 1.0000   
         C         C         1.0       0.47361061468590127           0.9589535238421071 0.6575019276623904 1.0000   
         C         C         1.0       0.46355401685274983           0.9250586173857974 0.6524641542775328 1.0000   
         C         C         1.0       0.46974729856095243           0.9129048813250432 0.6273576116848836 1.0000   
         C         C         1.0       0.9965353037770506  0.9279895368631338  0.619765266050029  1.0000   
         C         C         1.0       0.00988457790077497           0.008019150106197026         0.6622565355777749 1.0000   
         C         C         1.0       0.4910047048624776  0.5240016174914259  0.6481056906873187 1.0000   
         C         C         1.0       0.4617184729228732  0.5229125063813784  0.6587999699357915 1.0000   
         C         C         1.0       0.44167429454712714           0.541062673951564  0.6475622665638481 1.0000   
         C         C         1.0       0.4528131910099796  0.560854731326023   0.6246379432676893 1.0000   
         C         C         1.0       0.4806391230384386  0.5592129677594017  0.6121555434693874 1.0000   
         C         C         1.0       0.49846299596313154           0.5417267305070702 0.6243692811449916 1.0000   
         C         C         1.0       0.006291555772228687          0.9836106282446379 0.7103560101741042 1.0000   
         C         C         1.0       0.004624627975650695          0.9830021362597364 0.7388515587249461 1.0000   
         C         C         1.0       0.03940203496035671           0.5337221728974222 0.7515944773175227 1.0000   
         C         C         1.0       0.03044792939998646           0.5579013885501161 0.7358676178770855 1.0000   
         C         C         1.0       0.02700454915508847           0.5540584910361047 0.7076886012841185 1.0000   
         C         C         1.0       0.03174406088788352           0.5269237580067908 0.6949784030572307 1.0000   
         C         C         1.0       0.0353499886237377  0.5309411333894432  0.7833470064495464 1.0000   
         C         C         1.0       0.4664706003128558  0.9230643065292927  0.8048471760022299 1.0000   
         C         C         1.0       0.49399509952944487           0.9406129445345933 0.818786468411595  1.0000   
         C         C         1.0       0.006572073283452752          0.9695297574789669 0.8256919229266753 1.0000   
         C         C         1.0       0.5112814573561288  0.9823264033402272  0.7828701844915689 1.0000   
         C         C         1.0       0.4826134232703924  0.9651750043374956  0.7694134011999962 1.0000   
         C         C         1.0       0.461078753529001   0.9371063257410553  0.7799019218215951 1.0000   
         C         C         1.0       0.48451539176196434           0.520836276455681  0.7953855961929304 1.0000   
         C         C         1.0       0.45567201876125013           0.522366678817397  0.7830155659869873 1.0000   
         C         C         1.0       0.437716683696422   0.5426409154728178  0.7921347814893201 1.0000   
         C         C         1.0       0.4476614375120236  0.5631525045186575  0.814821294939366  1.0000   
         C         C         1.0       0.4749407659972722  0.5612288415567164  0.8288122200759949 1.0000   
         C         C         1.0       0.017712391907471196          0.5676119304452113 0.8206507196393046 1.0000   
         C         C         1.0       0.08741654120989684           0.5840067416004404 0.7885406001628757 1.0000   
         C         C         1.0       0.11948707514417738           0.597522755406776  0.7912364399316176 1.0000   
         C         C         1.0       0.1375712616217497  0.5774456536424397  0.7990027713286463 1.0000   
         C         C         1.0       0.1250064841127391  0.5437103174754317  0.8006117120534625 1.0000   
         C         C         1.0       0.09221094981051083           0.5289775344136253 0.796979085921196  1.0000   
         C         C         1.0       0.07256154981944005           0.5489251862959098 0.790573954044506  1.0000   
         H         H         1.0       0.032802574249573696          0.9765118861703367 0.6191289697264395 1.0000   
         H         H         1.0       0.4645649806411678  0.965583800458749   0.6772360734741351 1.0000   
         H         H         1.0       0.4470201313081422  0.9072158046009022  0.6666496088153439 1.0000   
         H         H         1.0       0.011195721436763924          0.9201386279010847 0.6048065197280353 1.0000   
         H         H         1.0       0.4529280859371546  0.5077788479653713  0.6770984751500915 1.0000   
         H         H         1.0       0.4237979855404343  0.5453959098338699  0.6619620377771285 1.0000   
         H         H         1.0       0.48920704828424855           0.5751105286866294 0.5958719720502056 1.0000   
         H         H         1.0       0.5207629743386728  0.5404882182726788  0.6134633727472567 1.0000   
         H         H         1.0       0.0012805231977712575         0.9584087194612079 0.702052652285691  1.0000   
         H         H         1.0       0.9997022910154926  0.9589806256955011  0.7462545945686571 1.0000   
         H         H         1.0       0.023984587407064325          0.5782692909124209 0.7472620904887742 1.0000   
         H         H         1.0       0.022011999908901386          0.5740753085537688 0.695827231624195  1.0000   
         H         H         1.0       0.4991898415017081  0.9314261991599304  0.8390013738106462 1.0000   
         H         H         1.0       0.02918764896210582           0.9838261334513039 0.8319110398618491 1.0000   
         H         H         1.0       0.47686224946978933           0.9720740830789648 0.7503111890759075 1.0000   
         H         H         1.0       0.44109701350417085           0.924660700151578  0.7662036257470625 1.0000   
         H         H         1.0       0.4468677099880058  0.5063411455696585  0.7654877068227306 1.0000   
         H         H         1.0       0.4164566848501734  0.5413932864720622  0.7808907614568267 1.0000   
         H         H         1.0       0.4838785641714136  0.5784826514017023  0.846538917520886  1.0000   
         H         H         1.0       0.038366158999540864          0.5675083366254511 0.8321434036172185 1.0000   
         H         H         1.0       0.07474149816139906           0.6016049521244243 0.7829578483960459 1.0000   
         H         H         1.0       0.1279668327491634  0.6250072602956341  0.7879449031360419 1.0000   
         H         H         1.0       0.1426881799421215  0.5288796483179166  0.8044876762878088 1.0000   
         H         H         1.0       0.05674831555857502           0.9767474791249582 0.7879306020350534 1.0000   
         C         C         1.0       0.23455393163042293           0.8071885859806667 0.44820821142945627          1.0000   
         C         C         1.0       0.23394481517692023           0.8373042846179595 0.4608908847063521 1.0000   
         C         C         1.0       0.22959424687764418           0.8629567378992554 0.44582657987569496          1.0000   
         C         C         1.0       0.23216281364106467           0.8641958831887002 0.4174596273623937 1.0000   
         C         C         1.0       0.23561336517208678           0.8354531556991908 0.40506819719117654          1.0000   
         C         C         1.0       0.23553607746699806           0.807299395945837  0.4203451239561915 1.0000   
         H         H         1.0       0.23523426619356502           0.8374734118019227 0.4836036955271513 1.0000   
         H         H         1.0       0.22347718949869402           0.8825221027473895 0.45767013634102427          1.0000   
         H         H         1.0       0.23462174652523846           0.832481607057796  0.3826261504795291 1.0000   
         H         H         1.0       0.2363388751615446  0.7854393736081071  0.40928774542545804          1.0000   
         C         C         1.0       0.27602716267064836           0.9052620794326731 0.37079962483858203          1.0000   
         C         C         1.0       0.24409342661030342           0.9040221604541022 0.3719725840576508 1.0000   
         C         C         1.0       0.23177332776426743           0.9162415101447738 0.34832735233298084          1.0000   
         C         C         1.0       0.2509979321002903  0.9357727142457317  0.3286187501950293 1.0000   
         C         C         1.0       0.2830236827874683  0.9394361122111463  0.3301416902467699 1.0000   
         C         C         1.0       0.29669586434381434           0.9243332220823641 0.3505080629754547 1.0000   
         C         C         1.0       0.22294185428409843           0.8924927987011412 0.39966116373670857          1.0000   
         C         C         1.0       0.23218114126739317           0.9275792908229091 0.41511462100630897          1.0000   
         C         C         1.0       0.2124746883096883  0.9485753076128627  0.4100855949089621 1.0000   
         C         C         1.0       0.2165864231533317  0.9779275298787976  0.42529961764236324          1.0000   
         C         C         1.0       0.24431626895605996           0.9912979531575492 0.4402611405090356 1.0000   
         C         C         1.0       0.26624012244154344           0.9729100355966009 0.4433017913098607 1.0000   
         C         C         1.0       0.2588716440044225  0.9410049784125359  0.43292337155236066          1.0000   
         C         C         1.0       0.17503869019233095           0.85412173666823   0.3708664259112363 1.0000   
         C         C         1.0       0.14274928456832608           0.8375713024468369 0.3677272160454885 1.0000   
         C         C         1.0       0.1209502662505798  0.8419888645443506  0.3857312018770394 1.0000   
         C         C         1.0       0.13156729552965954           0.8588489342273133 0.4094867695171435 1.0000   
         C         C         1.0       0.16304243934714518           0.8737648713706562 0.41397328743634115          1.0000   
         C         C         1.0       0.1857522113088894  0.8734556019717814  0.3947431535370377 1.0000   
         C         C         1.0       0.08330877001303681           0.8287389537018391 0.37743585311641553          1.0000   
         C         C         1.0       0.06852721508637512           0.9125055694574254 0.3298863295434177 1.0000   
         C         C         1.0       0.06782944056756536           0.8833680948923215 0.31642849247004273          1.0000   
         C         C         1.0       0.07449124254570162           0.8573478717356513 0.3303176586946195 1.0000   
         C         C         1.0       0.07928041058010923           0.8584639811096215 0.3585646736570666 1.0000   
         C         C         1.0       0.07987612806770332           0.8875308384405849 0.37201270810458076          1.0000   
         C         C         1.0       0.07602590599219276           0.914489005306542  0.3576732748328568 1.0000   
         C         C         1.0       0.05876143890769855           0.8202482448802235 0.40358852651856114          1.0000   
         C         C         1.0       0.06492191802281962           0.8027859208915167 0.4265125538474195 1.0000   
         C         C         1.0       0.04578339487495013           0.7977274052254829 0.4503718927297161 1.0000   
         C         C         1.0       0.018739527368457888          0.8074642448646026 0.4496032535395077 1.0000   
         C         C         1.0       0.01123247832197307           0.8227553071381666 0.4257444644064555 1.0000   
         C         C         1.0       0.03116511806350003           0.8295886221074743 0.4040906792323098 1.0000   
         C         C         1.0       0.04322375276569488           0.7826859910008949 0.3469262361735443 1.0000   
         C         C         1.0       0.03360596794753003           0.7515175159497847 0.3346696323690344 1.0000   
         C         C         1.0       0.049398825644335294          0.7276636704282294 0.34066729598087636          1.0000   
         C         C         1.0       0.07324751777116638           0.7343633882615596 0.35861908652511354          1.0000   
         C         C         1.0       0.08494628664732462           0.7668885929707292 0.3695510500941051 1.0000   
         C         C         1.0       0.07201045531125154           0.7934930479569068 0.36281646106380455          1.0000   
         H         H         1.0       0.2826692335689069  0.8936233457531699  0.3891933118397712 1.0000   
         H         H         1.0       0.20685469527759706           0.915396403446559  0.3494744859335789 1.0000   
         H         H         1.0       0.24222670755378586           0.9464441427983968 0.3103528200833569 1.0000   
         H         H         1.0       0.32282070263018936           0.925501628458504  0.349391628542669  1.0000   
         H         H         1.0       0.19479430561898695           0.943012441257043  0.39349851147936576          1.0000   
         H         H         1.0       0.19810621639641016           0.9903792700297344 0.42684860396318103          1.0000   
         H         H         1.0       0.2871792030192766  0.9799144309305531  0.45777845116353216          1.0000   
         H         H         1.0       0.27460778072695874           0.9267543331903848 0.43727031107762676          1.0000   
         H         H         1.0       0.19225536037627003           0.8520154790000073 0.354673546494425  1.0000   
         H         H         1.0       0.13523446550391366           0.8269802084418209 0.3474554270648502 1.0000   
         H         H         1.0       0.11280954322514156           0.8626931746661163 0.4234688380712784 1.0000   
         H         H         1.0       0.16960330306053567           0.8871742718945616 0.4332574292457517 1.0000   
         H         H         1.0       0.06424448835293789           0.8841220703894495 0.293912163552275  1.0000   
         H         H         1.0       0.0749375279397112  0.8364096504885271  0.31681926114868   1.0000   
         H         H         1.0       0.08333950192879461           0.8900825762690792 0.39401059235716135          1.0000   
         H         H         1.0       0.07560702703607415           0.9365518904345829 0.3699689395986595 1.0000   
         H         H         1.0       0.08745637193042201           0.7956993563491348 0.4248152285044501 1.0000   
         H         H         1.0       0.049391918665834346          0.7812928295578322 0.46550229813453314          1.0000   
         H         H         1.0       0.48935432666705175           0.7801546590565142 0.4155716499144727 1.0000   
         H         H         1.0       0.02588619163767308           0.8415504156165287 0.38561365618149296          1.0000   
         H         H         1.0       0.029995276503582646          0.8002940263971522 0.3435897041666032 1.0000   
         H         H         1.0       0.014881910981134238          0.7458938805700216 0.3190681721551248 1.0000   
         H         H         1.0       0.08602765697308136           0.7159231671184596 0.361920623926722  1.0000   
         H         H         1.0       0.10449126716905477           0.7711049590618844 0.38329043046473477          1.0000   
         C         C         1.0       0.22555936264285925           0.7968078939473173 0.9999588025070452 1.0000   
         C         C         1.0       0.22841475503101485           0.7988244940561665 0.027484649279554355         1.0000   
         C         C         1.0       0.22331664034976495           0.825655647563337  0.041080315828601624         1.0000   
         C         C         1.0       0.21387553547686447           0.8498117464648358 0.025835812495673908         1.0000   
         C         C         1.0       0.20576910432773302           0.8425674732021365 0.999433848549295  1.0000   
         C         C         1.0       0.21172931173852788           0.816319987895314  0.9865769359234883 1.0000   
         H         H         1.0       0.2344050837243769  0.7802557059727528  0.04043811430897826          1.0000   
         H         H         1.0       0.225116720560585   0.8246228388611799  0.0640885760766806 1.0000   
         H         H         1.0       0.1935285968192412  0.8578328659797544  0.9875457038804893 1.0000   
         H         H         1.0       0.20555184825345688           0.8136329522002097 0.9645407202961542 1.0000   
         C         C         1.0       0.23642135895511251           0.9205421768582723 0.9956015936281811 1.0000   
         C         C         1.0       0.2173957779247964  0.9147642960656255  0.019025048349066594         1.0000   
         C         C         1.0       0.20215823026832289           0.9394903413374013 0.024750067246863912         1.0000   
         C         C         1.0       0.20296691941866843           0.9642936845330776 0.006441588784008579         1.0000   
         C         C         1.0       0.22096337426992377           0.9689147379648133 0.9831864692820739 1.0000   
         C         C         1.0       0.23572917841879762           0.944427684323621  0.9765935902062599 1.0000   
         C         C         1.0       0.21024293612075204           0.8824268421188844 0.03936332505369123          1.0000   
         C         C         1.0       0.2349006585682991  0.899333772430603   0.061392132818021895         1.0000   
         C         C         1.0       0.22867661307756276           0.9180187961817089 0.08396664805531931          1.0000   
         C         C         1.0       0.2523893686072173  0.9370379121111083  0.09985358444689557          1.0000   
         C         C         1.0       0.28356703856463583           0.9353370552313972 0.09586818473594695          1.0000   
         C         C         1.0       0.2899396903824714  0.9156754044948033  0.07425173040473367          1.0000   
         C         C         1.0       0.26619983921790685           0.9000486281915856 0.056106510469999815         1.0000   
         C         C         1.0       0.14889061417777655           0.8653799214284534 0.03479945431665795          1.0000   
         C         C         1.0       0.11807136227402973           0.8503560941042061 0.042496241187106515         1.0000   
         C         C         1.0       0.11167935109034342           0.8340926069536894 0.0676429725132487 1.0000   
         C         C         1.0       0.1368710857467837  0.8350749277424618  0.08562010897535327          1.0000   
         C         C         1.0       0.16883497121015628           0.8506039975205298 0.07776071894386893          1.0000   
         C         C         1.0       0.17474552907331833           0.8657566887655475 0.05157700604511213          1.0000   
         C         C         1.0       0.07552856201393222           0.8196636801994301 0.07702957530235424          1.0000   
         C         C         1.0       0.05446865869152132           0.9082015524218863 0.11192607917679989          1.0000   
         C         C         1.0       0.04849936780378884           0.9006887904592377 0.08415312906414188          1.0000   
         C         C         1.0       0.055715407890817345          0.8724842352618993 0.0735645473911    1.0000   
         C         C         1.0       0.06802655119940951           0.8515989718899318 0.08957622686415924          1.0000   
         C         C         1.0       0.0759072262491599  0.8618197561456999  0.11668678234885545          1.0000   
         C         C         1.0       0.06792986993654122           0.8880678688740715 0.12846732446323542          1.0000   
         C         C         1.0       0.07047916395705657           0.7872620823798416 0.0960524469398588 1.0000   
         C         C         1.0       0.08725334666769456           0.7636159111507411 0.09078942476476848          1.0000   
         C         C         1.0       0.077294318128492   0.7327429445285318  0.1029656775641965 1.0000   
         C         C         1.0       0.05236628192378146           0.725121723855484  0.12241719010812262          1.0000   
         C         C         1.0       0.03893651666585567           0.749332252737222  0.13050267717664132          1.0000   
         C         C         1.0       0.0478946581345974  0.7800062056466096  0.11743429266400537          1.0000   
         C         C         1.0       0.016399639921469266          0.7949614381616602 0.059302607051511566         1.0000   
         C         C         1.0       0.9948106868405583  0.7783836522967806  0.040153286997796425         1.0000   
         C         C         1.0       0.004521803443062094          0.7665978211696401 0.016343940363914213         1.0000   
         C         C         1.0       0.037709835558865465          0.7688618990211226 0.012116264448468929         1.0000   
         C         C         1.0       0.058864105071177744          0.7847435947152263 0.031932709979193154         1.0000   
         C         C         1.0       0.04905818536435433           0.7995416924595496 0.05555720923526887          1.0000   
         H         H         1.0       0.2538652160592631  0.9065170737974579  0.9927039509749702 1.0000   
         H         H         1.0       0.18776820447253437           0.9364052655041779 0.04306468151247957          1.0000   
         H         H         1.0       0.19369533068985478           0.9849693320555133 0.012363459131903542         1.0000   
         H         H         1.0       0.25490089258214227           0.9513856946397382 0.9614454483654394 1.0000   
         H         H         1.0       0.20644290588448203           0.9187480724887117 0.08893034587695094          1.0000   
         H         H         1.0       0.24868242084698522           0.9477187939066554 0.11919913369142643          1.0000   
         H         H         1.0       0.31304361960080335           0.9119702978668788 0.07056693393988606          1.0000   
         H         H         1.0       0.2752525846149781  0.8879533475886098  0.039253051645961115         1.0000   
         H         H         1.0       0.1537555199394647  0.8781665340266646  0.015637662685430875         1.0000   
         H         H         1.0       0.09901293863090083           0.8520941580763142 0.029091826995238757         1.0000   
         H         H         1.0       0.13347597323700996           0.8217226542463957 0.10477749028266672          1.0000   
         H         H         1.0       0.18769305294048738           0.8480637230531285 0.09201379948073903          1.0000   
         H         H         1.0       0.03733413494223096           0.9157632459708536 0.07220739901454304          1.0000   
         H         H         1.0       0.05289304273914825           0.8686943773717355 0.05134758572397606          1.0000   
         H         H         1.0       0.08724898203690083           0.8453699952044962 0.1280059145263828 1.0000   
         H         H         1.0       0.07194758076765527           0.894065734831086  0.15073640434443186          1.0000   
         H         H         1.0       0.1044387429920965  0.768415265705995   0.07450219902633708          1.0000   
         H         H         1.0       0.08695355096424989           0.7132919520002966 0.09357981322406811          1.0000   
         H         H         1.0       0.020302051109260106          0.7439449092028186 0.14512402232744614          1.0000   
         H         H         1.0       0.03149673456451491           0.7934497510332716 0.1233122397452703 1.0000   
         H         H         1.0       0.01052474943415729           0.806448951289922  0.07797982469038343          1.0000   
         H         H         1.0       0.4870632710175584  0.8016267826238211  0.03303575975175508          1.0000   
         H         H         1.0       0.04621498616809737           0.7634823105724998 0.992090447487614  1.0000   
         H         H         1.0       0.08397142811825398           0.7863320885841654 0.028562538857278587         1.0000   
         C         C         1.0       0.3564018680139988  0.009061089972830283         0.302904502899441  1.0000   
         C         C         1.0       0.3871576738403488  0.5113836547231663  0.29823857162160694          1.0000   
         C         C         1.0       0.41538434359417475           0.5283384737544045 0.28507996056783697          1.0000   
         C         C         1.0       0.44455964791937413           0.5270850268986214 0.2948279671307202 1.0000   
         C         C         1.0       0.40966206159822316           0.0066140494812823025        0.3096568839564682 1.0000   
         C         C         1.0       0.3780863465117289  0.9971788884150979  0.31870197490632596          1.0000   
         H         H         1.0       0.3647853162848841  0.5113386832585252  0.28894871945170514          1.0000   
         H         H         1.0       0.41198190366971177           0.5435119126201441 0.26706325821088217          1.0000   
         H         H         1.0       0.4246032606649385  0.9941073129669921  0.32064651711266173          1.0000   
         H         H         1.0       0.36940123863394336           0.9800199682718188 0.3354822749939527 1.0000   
         C         C         1.0       0.002701343021563756          0.014057189394095948         0.31486784363049836          1.0000   
         C         C         1.0       0.5026006227811766  0.5240320125127171  0.2807530760127711 1.0000   
         C         C         1.0       0.9850521637157321  0.9861117168204017  0.2730165269645224 1.0000   
         C         C         1.0       0.999515527460506   0.9631385385852794  0.28076032194854245          1.0000   
         C         C         1.0       0.013128496827378695          0.9630872767211924 0.30609284120444125          1.0000   
         C         C         1.0       0.01612005578994281           0.9904039437064702 0.32282774241318396          1.0000   
         C         C         1.0       0.476435137925799   0.5446782157549845  0.2787967428261381 1.0000   
         C         C         1.0       0.985260748871753   0.5687684675508902  0.29874609426273663          1.0000   
         C         C         1.0       0.004332237397826312          0.5741535931072979 0.32134611433857513          1.0000   
         C         C         1.0       0.010863931971866816          0.6046670398989926 0.3338069474776121 1.0000   
         C         C         1.0       0.0014267675249472148         0.6307707870038023 0.3244428991165531 1.0000   
         C         C         1.0       0.9829642881236752  0.625936320914148   0.30114212163167015          1.0000   
         C         C         1.0       0.4776613809965785  0.606493789808433   0.283843584550779  1.0000   
         C         C         1.0       0.450392871822608   0.5264874124494293  0.23029541283555346          1.0000   
         C         C         1.0       0.4530166748045649  0.5277614527182011  0.20225093406345251          1.0000   
         C         C         1.0       0.47776598048922464           0.5498930644876838 0.19008804411534716          1.0000   
         C         C         1.0       0.5024878005561569  0.571223738682051   0.2045704156464205 1.0000   
         C         C         1.0       0.5003735129372134  0.5694377883064803  0.23218104985474128          1.0000   
         C         C         1.0       0.47523616087539633           0.5454235773760163 0.24636400003516296          1.0000   
         C         C         1.0       0.4804384072027539  0.5510485431696797  0.15760608521265684          1.0000   
         C         C         1.0       0.020762341808186688          0.9660535010214101 0.15684668137871194          1.0000   
         C         C         1.0       0.47939212652200947           0.9617914273387563 0.13520100950588726          1.0000   
         C         C         1.0       0.46208330917146423           0.9859319763221366 0.13746852671634974          1.0000   
         C         C         1.0       0.5014600799259824  0.5263250253280148  0.15359218885533105          1.0000   
         C         C         1.0       0.029515866173588586          0.5171312746972329 0.1529507404728737 1.0000   
         C         C         1.0       0.04969615912541301           0.4978234397409664 0.14863824490080157          1.0000   
         C         C         1.0       0.4960581920617112  0.5865887385275447  0.142375516257723  1.0000   
         C         C         1.0       0.4890905614862027  0.6145304279666548  0.15530421398571298          1.0000   
         C         C         1.0       0.5045048092313267  0.6471857839922199  0.14607818972353925          1.0000   
         C         C         1.0       0.5263018076264717  0.6509821025949525  0.12465515598039535          1.0000   
         C         C         1.0       0.5283722493541114  0.6247569191486965  0.10847069621705467          1.0000   
         C         C         1.0       0.5140546109772903  0.5934912191641101  0.11779137122675616          1.0000   
         C         C         1.0       0.442159160297001   0.5194877953855737  0.11871242767696778          1.0000   
         C         C         1.0       0.4130407257190951  0.5074454111709057  0.1056447166009139 1.0000   
         C         C         1.0       0.3580331140823771  0.012475909576971977         0.11982610395481995          1.0000   
         C         C         1.0       0.39204252349449875           0.5371627622987788 0.14034259460831067          1.0000   
         C         C         1.0       0.4218685213214662  0.5503990107870887  0.1511210190681782 1.0000   
         C         C         1.0       0.44750946008179193           0.5412300179565083 0.14074867913181585          1.0000   
         H         H         1.0       0.9543268513627138  0.4581136827698036  0.2918196722072385 1.0000   
         H         H         1.0       0.4690143849175554  0.9798313998041683  0.2517400840185047 1.0000   
         H         H         1.0       0.9976308703884778  0.9410139396491003  0.2671616251555037 1.0000   
         H         H         1.0       0.024232060895449294          0.9932032964283241 0.34349971970820115          1.0000   
         H         H         1.0       0.010201655217212965          0.5523301451694845 0.33036829544059026          1.0000   
         H         H         1.0       0.024123565868960892          0.6058903423327796 0.35236152505283724          1.0000   
         H         H         1.0       0.9712236732113861  0.643431354281099   0.2935332957507352 1.0000   
         H         H         1.0       0.46183159281342184           0.6027548417939428 0.2658835795979276 1.0000   
         H         H         1.0       0.42160018511769204           0.9961330106151296 0.23984505541305284          1.0000   
         H         H         1.0       0.42156402443962915           0.992782940883137  0.1921177353086955 1.0000   
         H         H         1.0       0.015054727997798644          0.5727520021257839 0.19738221655499888          1.0000   
         H         H         1.0       0.01745975995651478           0.5715034889396591 0.2471300747937309 1.0000   
         H         H         1.0       0.4672703958231311  0.9379583476899453  0.12846448417064335          1.0000   
         H         H         1.0       0.43674941585617355           0.9774755617496412 0.13458066268095517          1.0000   
         H         H         1.0       0.042051075246659866          0.5444510949805755 0.15284562343556726          1.0000   
         H         H         1.0       0.07522413091579531           0.5087847528495235 0.1444110084973911 1.0000   
         H         H         1.0       0.4745288007224732  0.6119991186821288  0.17416568231219381          1.0000   
         H         H         1.0       0.5017261803978889  0.6669900139166746  0.15643223619131347          1.0000   
         H         H         1.0       0.5396446283238876  0.6286393136641163  0.08803946607494847          1.0000   
         H         H         1.0       0.5205030133205182  0.5736220242120064  0.10651208895014898          1.0000   
         H         H         1.0       0.4607761156278575  0.51178422811356    0.10833693975399074          1.0000   
         H         H         1.0       0.38103234699734173           0.007914109680664527         0.08208855940831836          1.0000   
         H         H         1.0       0.3756837893964175  0.5493605328855381  0.1472604026973747 1.0000   
         H         H         1.0       0.4260567854402375  0.5648304037444472  0.16781112886572044          1.0000   
         C         C         1.0       0.5382747792111917  0.6864001118338051  0.1143242228138612 1.0000   
         C         C         1.0       0.039278550197118296          0.689184480505348  0.13434927948329722          1.0000   
         H         H         1.0       0.027836538176481518          0.6637391990914328 0.09644301735435074          1.0000   
         H         H         1.0       0.5171180971970488  0.69552189176098    0.11444695089424865          1.0000   
         H         H         1.0       0.02777211269928353           0.6891573495632078 0.1550011868190596 1.0000   
         H         H         1.0       0.060001817492983854          0.679734270946837  0.13776684335501777          1.0000   
         C         C         1.0       0.311809627786621   0.9560897235713018  0.11196365188953285          1.0000   
         C         C         1.0       0.32557155525123144           0.9946687518805247 0.10634835826594494          1.0000   
         H         H         1.0       0.32898561404073573           0.46356367766238293          0.13481855858115577          1.0000   
         H         H         1.0       0.35449275812707576           0.44999104492257064          0.11529303401919477          1.0000   
         H         H         1.0       0.30749287884850257           0.00524554345532513          0.11586948997187611          1.0000   
         H         H         1.0       0.32735921584902106           0.0025471541012673793        0.08448214173020308          1.0000   
         C         C         1.0       0.047030231895420306          0.9392316044217034 0.12171004078190135          1.0000   
         C         C         1.0       0.03773054981418351           0.9402549393407174 0.15122533318598205          1.0000   
         H         H         1.0       0.06688154901188734           0.9613588262434718 0.11537903462300031          1.0000   
         H         H         1.0       0.026118823380238698          0.9430500200588883 0.11013474402219238          1.0000   
         H         H         1.0       0.02301952415710532           0.9153522728786077 0.15962336399920962          1.0000   
         H         H         1.0       0.05866891606326494           0.9459137937736992 0.16470386156783423          1.0000   
         C         C         1.0       0.3194705978147167  0.9978961684410019  0.3131058234857539 1.0000   
         C         C         1.0       0.30407062303767435           0.9582350068195958 0.30749067611002384          1.0000   
         H         H         1.0       0.3186461742105039  0.0020263744444555254        0.3361287867544354 1.0000   
         H         H         1.0       0.33939856196774315           0.49171430353136497          0.3347029758371138 1.0000   
         H         H         1.0       0.29196798139699576           0.9546412607377048 0.2872184686053324 1.0000   
         H         H         1.0       0.3211567847608493  0.943775965799731   0.3048655569926944 1.0000   
         C         C         1.0       0.03754696417106445           0.6918822184391338 0.32552615343932867          1.0000   
         C         C         1.0       0.009024293444767323          0.665426493821537  0.33997360320989073          1.0000   
         H         H         1.0       0.05883263313937619           0.6818462957033602 0.3218526076794392 1.0000   
         H         H         1.0       0.029442822859707115          0.6971240340900501 0.3041857255805178 1.0000   
         H         H         1.0       0.9870556813623893  0.6750329655480688  0.33944019544155424          1.0000   
         H         H         1.0       0.014053408062386984          0.6630157153138719 0.3615880571500508 1.0000   
         C         C         1.0       0.020913199109942777          0.9330104607190958 0.3184561150857587 1.0000   
         C         C         1.0       0.05879934170359525           0.941516076327056  0.3162962585550032 1.0000   
         H         H         1.0       0.009559909319802355          0.9243790767211696 0.33840714639717756          1.0000   
         H         H         1.0       0.01042671234479829           0.9089939109782134 0.30560205334120644          1.0000   
         H         H         1.0       0.06347233249217    0.9418591056490264  0.29362610541183526          1.0000   
         H         H         1.0       0.06984673072430324           0.966464781021866  0.32728125292959476          1.0000   
         C         C         1.0       0.24186076555310315           0.535841495278067  0.46571370976368903          1.0000   
         C         C         1.0       0.2640772945247577  0.5348545157218306  0.4423666210711161 1.0000   
         H         H         1.0       0.23872971601505022           0.5169663390499447 0.48234514890342634          1.0000   
         H         H         1.0       0.21714086800435112           0.5318290073505125 0.4574633086097315 1.0000   
         H         H         1.0       0.2880038865614441  0.5410318868819965  0.4515438848157408 1.0000   
         H         H         1.0       0.26594910617650536           0.55377561272895   0.4270638355529427 1.0000   
         C         C         1.0       0.5068404328874386  0.7969009956976499  0.48370603499099124          1.0000   
         C         C         1.0       0.9983002418420952  0.8048186316390311  0.47426895485011145          1.0000   
         H         H         1.0       0.5008686383323019  0.8158552177769143  0.4717968373505374 1.0000   
         H         H         1.0       0.5295834209706557  0.8106580190214419  0.4943403697230174 1.0000   
         H         H         1.0       0.5271046153755251  0.7566769792940021  0.47665934339043753          1.0000   
         H         H         1.0       0.014611382454143474          0.8132939460461539 0.4908525581338742 1.0000   
         C         C         1.0       0.23938311715479327           0.7774273251999885 0.466211186560461  1.0000   
         C         C         1.0       0.27507607798448525           0.7803849668908296 0.47047006715158474          1.0000   
         H         H         1.0       0.2266628483673748  0.7542904139521369  0.4548403516455749 1.0000   
         H         H         1.0       0.22524664602109892           0.7758478393038892 0.4863871073810956 1.0000   
         H         H         1.0       0.2857203717633578  0.8064312419315917  0.48001646776664064          1.0000   
         H         H         1.0       0.28659924563274597           0.7835376208950593 0.45021240295333437          1.0000   
         C         C         1.0       0.43191354793951675           0.5812404796089579 0.6119083995252721 1.0000   
         C         C         1.0       0.44733821951745845           0.6167805358522113 0.6224759656852229 1.0000   
         H         H         1.0       0.4321086314641949  0.5821530681748502  0.5887635538031457 1.0000   
         H         H         1.0       0.40574494044724985           0.5734486376814963 0.616845270900663  1.0000   
         H         H         1.0       0.47431806664885456           0.6237231287036661 0.6203579007386605 1.0000   
         H         H         1.0       0.4432531179245153  0.616212359163898   0.6453257691132428 1.0000   
         C         C         1.0       0.1492861230348428  0.5800905189386467  0.6083625236602754 1.0000   
         C         C         1.0       0.17623664210440068           0.6149504847434011 0.6144993646086835 1.0000   
         H         H         1.0       0.16063236524688648           0.5609745176725698 0.6043320142310372 1.0000   
         H         H         1.0       0.13630714674560046           0.5819983749024306 0.5887059671192635 1.0000   
         H         H         1.0       0.18459743518122643           0.6090292151530864 0.6349901647514677 1.0000   
         H         H         1.0       0.16509795159189572           0.6342222587260246 0.6209489522030658 1.0000   
         C         C         1.0       0.43413255200610723           0.8508289154719616 0.6357251871230293 1.0000   
         C         C         1.0       0.4606084864178339  0.8761144056301357  0.6187209119351436 1.0000   
         H         H         1.0       0.4366153362491392  0.8509737664143272  0.6586933942067009 1.0000   
         H         H         1.0       0.4129455379276312  0.8613868710640107  0.6334887085938361 1.0000   
         H         H         1.0       0.4548978955188246  0.8740247146831464  0.5968567136022374 1.0000   
         H         H         1.0       0.4797944021620986  0.8647949303836521  0.6192718348807013 1.0000   
         C         C         1.0       0.5026034537171653  0.7973659541270339  0.9623274502822602 1.0000   
         C         C         1.0       0.4995405178786766  0.7713309250441266  0.9851206579409673 1.0000   
         H         H         1.0       0.5278254068367696  0.8032262646877643  0.9548521493078939 1.0000   
         H         H         1.0       0.4988577247711327  0.820423422274332   0.9696536301716523 1.0000   
         H         H         1.0       0.9562432859406926  0.7389678912844291  0.003646883807545187         1.0000   
         H         H         1.0       0.5006281507524223  0.746367081287174   0.9759242781257818 1.0000   
         C         C         1.0       0.2702611746333921  0.548707768756696   0.9776043645182543 1.0000   
         C         C         1.0       0.24746828586443356           0.5152604921050195 0.9678894203056063 1.0000   
         H         H         1.0       0.2964841387537499  0.5487760604431312  0.9803976768562892 1.0000   
         H         H         1.0       0.26477613679922263           0.5555093398862242 0.9983572420506877 1.0000   
         H         H         1.0       0.22338890948021928           0.5143960120549763 0.9668105996024712 1.0000   
         H         H         1.0       0.25004878848686246           0.5055492957808956 0.9474289313308616 1.0000   
         C         C         1.0       0.2636804305605533  0.7836614388904959  0.9653097640078628 1.0000   
         C         C         1.0       0.2351533728395102  0.7703263117098276  0.9846332998827085 1.0000   
         H         H         1.0       0.28483229252213393           0.7946003581278331 0.9796326857675546 1.0000   
         H         H         1.0       0.2603886509472701  0.8051111904596747  0.9531915816545533 1.0000   
         H         H         1.0       0.2134941567699424  0.7552797847166823  0.9744936705593275 1.0000   
         H         H         1.0       0.24103141639265196           0.754279088241954  0.0003310881877283123        1.0000   
         C         C         1.0       0.43210652842634567           0.5897671415417532 0.8241263899528544 1.0000   
         C         C         1.0       0.4530255674395493  0.6249597401474966  0.8143394345381272 1.0000   
         H         H         1.0       0.40734462987863945           0.5806299839482177 0.8163756960160712 1.0000   
         H         H         1.0       0.42875363913458875           0.5897764431712214 0.8469730819602075 1.0000   
         H         H         1.0       0.4520003154011531  0.6294209908176627  0.7928365397073299 1.0000   
         H         H         1.0       0.4792062477894877  0.6272551519952729  0.8171410065822692 1.0000   
         C         C         1.0       0.1726396059892227  0.5952480633288768  0.8054949387254977 1.0000   
         C         C         1.0       0.18226332003074874           0.5838607078137594 0.8342301116382272 1.0000   
         H         H         1.0       0.18912586376563206           0.5885333590512843 0.7911226243207583 1.0000   
         H         H         1.0       0.1792296544951477  0.6228850744923387  0.8049217666971026 1.0000   
         H         H         1.0       0.19323088297595412           0.5633409796544828 0.8321869718188231 1.0000   
         H         H         1.0       0.1591393431416879  0.5751785959345113  0.8464802718633133 1.0000   
         C         C         1.0       0.442187077117186   0.8921385892528397  0.8175179218129082 1.0000   
         C         C         1.0       0.4336530525489134  0.8604577027127831  0.8004036632449343 1.0000   
         H         H         1.0       0.45170818698647586           0.8858250292100963 0.8380443417179858 1.0000   
         H         H         1.0       0.4182011050376302  0.8968222700529845  0.822388402959441  1.0000   
         H         H         1.0       0.45279739965926996           0.8605610421023077 0.78468203888528   1.0000   
         H         H         1.0       0.41284741243954093           0.8600162012783195 0.7867426875720097 1.0000   
         C         C         1.0       0.9358531582258205  0.15950024329304582           0.8383093067718315 1.0000   
         C         C         1.0       0.9405490680114765  0.16751556121013228           0.8657212528422437 1.0000   
         C         C         1.0       0.9311035988716374  0.1939686669397756  0.876737242425558  1.0000   
         C         C         1.0       0.9156241365219765  0.21211601992985446           0.860660762285175  1.0000   
         C         C         1.0       0.9075205420383107  0.19967154960239908           0.8340330063038439 1.0000   
         C         C         1.0       0.9175829241221802  0.17450685336503743           0.8231049258472876 1.0000   
         H         H         1.0       0.9538997801804378  0.15410158708796945           0.8798799628037979 1.0000   
         H         H         1.0       0.9378388473849739  0.2011408215921264  0.8979366535864907 1.0000   
         H         H         1.0       0.8950053200719857  0.2130083909633742  0.8212313254594152 1.0000   
         H         H         1.0       0.9110196355506448  0.1649664613714954  0.802967642585183  1.0000   
         C         C         1.0       0.9349419203487054  0.2821662335558254  0.8334233766832284 1.0000   
         C         C         1.0       0.9115217953740505  0.2739848242335425  0.8530861429250479 1.0000   
         C         C         1.0       0.8959292313681092  0.29847617656700137           0.8588550976714303 1.0000   
         C         C         1.0       0.9063681653394714  0.3293674358646699  0.8456451818613997 1.0000   
         C         C         1.0       0.9307892753451561  0.33606637173639314           0.8272156284910027 1.0000   
         C         C         1.0       0.9425592145863803  0.3106441299870257  0.8182346227770795 1.0000   
         C         C         1.0       0.9064900979615326  0.2426019956343579  0.8734371086924916 1.0000   
         C         C         1.0       0.9281967032347059  0.26266428613958265           0.8981864648779792 1.0000   
         C         C         1.0       0.9157538213461439  0.27425206858835494           0.922130985907261  1.0000   
         C         C         1.0       0.9359319429461114  0.2910976995454139  0.9424111715598796 1.0000   
         C         C         1.0       0.9689700478338962  0.29796712094757877           0.9390492306040148 1.0000   
         C         C         1.0       0.9810249954282889  0.2835522387080511  0.9176277887876138 1.0000   
         C         C         1.0       0.961018093685385   0.2691414792962029  0.8961568513303888 1.0000   
         C         C         1.0       0.8457822371030602  0.22395574815342562           0.861869507240183  1.0000   
         C         C         1.0       0.814601600860657   0.20703467344833884           0.867402257494065  1.0000   
         C         C         1.0       0.8054917079313612  0.18832885999389218           0.8918327560242937 1.0000   
         C         C         1.0       0.8303588485289305  0.19146094278530576           0.9107317709442182 1.0000   
         C         C         1.0       0.8620658373513411  0.2067525670903178  0.9047635953028887 1.0000   
         C         C         1.0       0.8705030640140614  0.2243258769875479  0.8803617503934632 1.0000   
         C         C         1.0       0.7689689506653419  0.16876000879961545           0.8969754438112126 1.0000   
         C         C         1.0       0.7454523676871512  0.2532592327100343  0.9375854599477419 1.0000   
         C         C         1.0       0.7409659090804768  0.24927878198965522           0.909042868080796  1.0000   
         C         C         1.0       0.7459783685323186  0.22097605950812527           0.8964783476361976 1.0000   
         C         C         1.0       0.7582514531200651  0.19841251724500755           0.9104876870674964 1.0000   
         C         C         1.0       0.7618307168155676  0.20332844871182382           0.9384891108792732 1.0000   
         C         C         1.0       0.7555860384059083  0.22991730254538253           0.9525148480592245 1.0000   
         C         C         1.0       0.76251441402081    0.1359765967397598  0.9166271106473989 1.0000   
         C         C         1.0       0.7839533411707315  0.11626994841935501           0.9166148673990497 1.0000   
         C         C         1.0       0.7796123752023355  0.0897385449656322  0.9346938577897795 1.0000   
         C         C         1.0       0.7536030253830158  0.08189954936178283           0.9522568563640296 1.0000   
         C         C         1.0       0.7328039777167508  0.10099568799104354           0.9525978986917583 1.0000   
         C         C         1.0       0.7364933318419078  0.12696896203251265           0.9344665092086731 1.0000   
         C         C         1.0       0.7148638776571998  0.1473325437375306  0.8693623532190836 1.0000   
         C         C         1.0       0.6976206874484856  0.1306608988082112  0.8479659850702208 1.0000   
         C         C         1.0       0.7114425848092214  0.11469377857777359           0.8288042838350904 1.0000   
         C         C         1.0       0.7432359368680787  0.1183075482872991  0.8310009631278054 1.0000   
         C         C         1.0       0.7618705642725464  0.13316172039475294           0.8527619894037686 1.0000   
         C         C         1.0       0.7486214964001965  0.15051883533638669           0.8714045703802531 1.0000   
         H         H         1.0       0.9509552237955924  0.2655990579339276  0.8318696927480921 1.0000   
         H         H         1.0       0.8815151862452616  0.29356032537574245           0.876058244594512  1.0000   
         H         H         1.0       0.8987204068076398  0.3494376874985969  0.8522785166039358 1.0000   
         H         H         1.0       0.9629053282816383  0.3167056813502851  0.8026357124042952 1.0000   
         H         H         1.0       0.8902413978904796  0.2692997527404068  0.9256569936233916 1.0000   
         H         H         1.0       0.9255571482612792  0.30167678446332113           0.9598988108704837 1.0000   
         H         H         1.0       0.007219490618773028          0.28907728291441054          0.9162521263838396 1.0000   
         H         H         1.0       0.9701562586171675  0.25821914336965357           0.8781810651502138 1.0000   
         H         H         1.0       0.8509963894901023  0.23401597899308135           0.8412815973266482 1.0000   
         H         H         1.0       0.7966500917125844  0.20841410025936508           0.8530070898878689 1.0000   
         H         H         1.0       0.8261691900640483  0.17769213076308066           0.9299399116146173 1.0000   
         H         H         1.0       0.8781138969619604  0.20368389550559388           0.9205393527312278 1.0000   
         H         H         1.0       0.7264861112015661  0.260976117823872   0.8975817053703357 1.0000   
         H         H         1.0       0.742951543976097   0.21679515753814071           0.8742689859741976 1.0000   
         H         H         1.0       0.7722556972182427  0.18758019432334586           0.9506895197018895 1.0000   
         H         H         1.0       0.7577829811197391  0.22963477006007105           0.975399082591467  1.0000   
         H         H         1.0       0.8036244365649899  0.12033364655795932           0.9023994929913236 1.0000   
         H         H         1.0       0.7958002841831858  0.07490396093298937           0.9326647351098981 1.0000   
         H         H         1.0       0.7099324988081128  0.09081658306687587           0.9638319869020089 1.0000   
         H         H         1.0       0.7177879672222212  0.14057521674535586           0.9333324527019309 1.0000   
         H         H         1.0       0.7030706371409302  0.15991237921837692           0.8835190365505285 1.0000   
         H         H         1.0       0.6712055659612794  0.12986679258474984           0.8466662418941839 1.0000   
         H         H         1.0       0.7549265670089286  0.1060971190311541  0.8165602860608996 1.0000   
         H         H         1.0       0.7881712280913405  0.13752217681390833           0.8533335978325641 1.0000   
         C         C         1.0       0.9435875349207915  0.14819815789145974           0.6032034928681732 1.0000   
         C         C         1.0       0.9237684182884736  0.1615373954514435  0.6180751773764385 1.0000   
         C         C         1.0       0.9146756058129217  0.1878365517010971  0.6071292128031777 1.0000   
         C         C         1.0       0.9228576572752023  0.19916695295040696           0.5808763444349669 1.0000   
         C         C         1.0       0.9366861498342758  0.18014361084996938           0.5641860062752927 1.0000   
         C         C         1.0       0.9507265886595594  0.15882819429093625           0.5764679232230292 1.0000   
         H         H         1.0       0.9192376276930535  0.155734570622715   0.639107697276153  1.0000   
         H         H         1.0       0.9015945214503298  0.19998359959603698           0.6199944616248501 1.0000   
         H         H         1.0       0.9377160508151924  0.18404650167682404           0.5426591376150042 1.0000   
         H         H         1.0       0.9667844826158145  0.14561583205449857           0.5661601660293479 1.0000   
         C         C         1.0       0.9676243256690502  0.2522263555110055  0.5394205120363214 1.0000   
         C         C         1.0       0.9354743955195887  0.25024499416488855           0.5436068392405238 1.0000   
         C         C         1.0       0.9208413819835024  0.26771858863614634           0.5264648222287245 1.0000   
         C         C         1.0       0.9364610936222969  0.28141691810415226           0.5024983839883992 1.0000   
         C         C         1.0       0.9672241299894904  0.27933931156488095           0.49634120592216924          1.0000   
         C         C         1.0       0.9817884415706974  0.2650587216018322  0.5150204007753582 1.0000   
         C         C         1.0       0.915152684329251   0.23244175558759575           0.5701388136778063 1.0000   
         C         C         1.0       0.9238658852254121  0.2628826244369698  0.5912866806316539 1.0000   
         C         C         1.0       0.9087930755284623  0.28729833681841876           0.5932962552293004 1.0000   
         C         C         1.0       0.9193621181954832  0.31508114153045724           0.609001835473348  1.0000   
         C         C         1.0       0.9491502167273831  0.32221247795486463           0.6217939451113891 1.0000   
         C         C         1.0       0.9647448721001307  0.2985268822632162  0.6208829363074886 1.0000   
         C         C         1.0       0.9516036969345172  0.26868217989071513           0.6068172909630162 1.0000   
         C         C         1.0       0.8673526709885581  0.19553848169723057           0.539807635348571  1.0000   
         C         C         1.0       0.8360628597916709  0.18276272513281014           0.5313617984003426 1.0000   
         C         C         1.0       0.8120083962815111  0.18311978775319754           0.5495874419654058 1.0000   
         C         C         1.0       0.8199722884252661  0.19980335353384474           0.5738771072976284 1.0000   
         C         C         1.0       0.8522528261619948  0.2155572172316349  0.5812227225759217 1.0000   
         C         C         1.0       0.8770121638341001  0.21330861568927223           0.5639274643502492 1.0000   
         C         C         1.0       0.7760360583694561  0.16315375524675868           0.5399794984809506 1.0000   
         C         C         1.0       0.7710085798679602  0.24378130990264388           0.48142025673239996          1.0000   
         C         C         1.0       0.7746132663642586  0.21366135362499905           0.4713622542088445 1.0000   
         C         C         1.0       0.7758483769999548  0.18811963440689095           0.48891877597117583          1.0000   
         C         C         1.0       0.7729607163448913  0.19054472679014126           0.5172601924796276 1.0000   
         C         C         1.0       0.771551144983229   0.2218714511128607  0.5273167722982829 1.0000   
         C         C         1.0       0.7685104673821891  0.24745668810762156           0.510195838327437  1.0000   
         C         C         1.0       0.7480798470019     0.15319926579068044           0.5631769108585631 1.0000   
         C         C         1.0       0.754203288191674   0.1394474964010035  0.58828049488069   1.0000   
         C         C         1.0       0.7289175233358781  0.1219522876167529  0.6049958703650202 1.0000   
         C         C         1.0       0.6980679005153593  0.12032463643883208           0.5973169641877227 1.0000   
         C         C         1.0       0.692211821455245   0.1330864558622927  0.5720359749146491 1.0000   
         C         C         1.0       0.7166945503875481  0.15085451867206393           0.5553493080574841 1.0000   
         C         C         1.0       0.7488915086550639  0.11171152185526774           0.5081021379500789 1.0000   
         C         C         1.0       0.7448065366772905  0.08019031282349588           0.49771781062625353          1.0000   
         C         C         1.0       0.7631718702754922  0.062157164657486226         0.5075538685214483 1.0000   
         C         C         1.0       0.7843544264812345  0.07335153697222299           0.5286678207246654 1.0000   
         C         C         1.0       0.7883248030771061  0.1053621917191894  0.5381158657702814 1.0000   
         C         C         1.0       0.7710842649994027  0.12621632895836812           0.5280668590855341 1.0000   
         H         H         1.0       0.9806103617176926  0.2418192507844128  0.5557557164502318 1.0000   
         H         H         1.0       0.8960881561314736  0.26602774734602525           0.5317503219528819 1.0000   
         H         H         1.0       0.9247760657651519  0.2908880294426007  0.48620595512879966          1.0000   
         H         H         1.0       0.006771992507054625          0.26554108308592694          0.5102667849317897 1.0000   
         H         H         1.0       0.8855279519434083  0.2852841836853902  0.5819321443589955 1.0000   
         H         H         1.0       0.9100172745264834  0.334795298378979   0.6059550120051268 1.0000   
         H         H         1.0       0.9877560913522833  0.30291693534971625           0.6312572847974112 1.0000   
         H         H         1.0       0.9659409585050327  0.25121379643676883           0.6065287736962681 1.0000   
         H         H         1.0       0.8856736939947341  0.19788884833147977           0.5237090289781915 1.0000   
         H         H         1.0       0.8306780123668343  0.17353957269830572           0.5099365752553539 1.0000   
         H         H         1.0       0.8023983033016728  0.20603707507710978           0.58602461064438   1.0000   
         H         H         1.0       0.8570093098086263  0.22775046654599687           0.6005875649882948 1.0000   
         H         H         1.0       0.7776859246189329  0.20944715297276217           0.4490605962903288 1.0000   
         H         H         1.0       0.7829008387091893  0.16800678244794584           0.47978442253213643          1.0000   
         H         H         1.0       0.7691899182369142  0.22186890121272776           0.5496806349056292 1.0000   
         H         H         1.0       0.7669751931152761  0.27053061143909    0.5189543251427513 1.0000   
         H         H         1.0       0.7789707872006354  0.13796736386449118           0.5903428160913325 1.0000   
         H         H         1.0       0.734028341614073   0.11002167408477188           0.6245033923588209 1.0000   
         H         H         1.0       0.6696998307730294  0.1340116740186188  0.5640751517794641 1.0000   
         H         H         1.0       0.7113040170193645  0.15939451907622984           0.5361174413466362 1.0000   
         H         H         1.0       0.734072163196733   0.12710900753291385           0.5018177789716467 1.0000   
         H         H         1.0       0.7252309945660289  0.07050979340310091           0.4831996228989502 1.0000   
         H         H         1.0       0.8008974165175131  0.05952787366446571           0.535062184011166  1.0000   
         H         H         1.0       0.806458741644846   0.11940081026995479           0.5540716094181563 1.0000   
         C         C         1.0       0.6115289956344092  0.05993052018663794           0.6185747128827663 1.0000   
         C         C         1.0       0.5939997652469734  0.08209221133403523           0.6206024584063901 1.0000   
         C         C         1.0       0.562574393459675   0.07032779958208064           0.6312169459953313 1.0000   
         C         C         1.0       0.5491448418561625  0.03611330829788225           0.6375812214100665 1.0000   
         C         C         1.0       0.5680360650850628  0.01483287294327676           0.6357806842313225 1.0000   
         C         C         1.0       0.600234540379423   0.027408957378053406         0.6276952767186487 1.0000   
         H         H         1.0       0.601560819797454   0.1061694166143845  0.610373228599965  1.0000   
         H         H         1.0       0.5482974060749359  0.08673638132506828           0.6349831726646691 1.0000   
         H         H         1.0       0.564794643852074   0.4787609377699392  0.654688024732609  1.0000   
         H         H         1.0       0.6147563216169523  0.011080095834669542         0.6272654223198769 1.0000   
         C         C         1.0       0.513848662483959   0.46123248563358804           0.6226831981381689 1.0000   
         C         C         1.0       0.5034643308385265  0.46983688123067013           0.6483517622884789 1.0000   
         C         C         1.0       0.993737324191252   0.46016452983210715           0.6664403715457066 1.0000   
         C         C         1.0       0.9852700603673705  0.427499975097751   0.6569198716664089 1.0000   
         C         C         1.0       0.9972185357452432  0.4199072939425695  0.6320050302972474 1.0000   
         C         C         1.0       0.5002757364905067  0.4308427929772385  0.6109941716483706 1.0000   
         C         C         1.0       0.5158791285998175  0.5071620008649754  0.6620062279496219 1.0000   
         C         C         1.0       0.9859349835047878  0.02707715002490625           0.6484898018799821 1.0000   
         C         C         1.0       0.9603086072075012  0.03484016746621702           0.661967647680367  1.0000   
         C         C         1.0       0.943250337098761   0.05249479411672839           0.6492096419404192 1.0000   
         C         C         1.0       0.9486631180414243  0.060895582241574285         0.6211842375772895 1.0000   
         C         C         1.0       0.9716794555030228  0.05170100469538375           0.6067897372977856 1.0000   
         C         C         1.0       0.989715542927023   0.035812793817734785         0.6211820525885874 1.0000   
         C         C         1.0       0.5227341340203869  0.48161063206233407           0.7093491227064058 1.0000   
         C         C         1.0       0.5208433226941815  0.4807250399466885  0.737776177179934  1.0000   
         C         C         1.0       0.5344732537016755  0.02344994474414545           0.7391383218527503 1.0000   
         C         C         1.0       0.5301573900560891  0.050798374284343584         0.7251768282755904 1.0000   
         C         C         1.0       0.5238800330934921  0.04888677754912067           0.697415314619795  1.0000   
         C         C         1.0       0.5238436423638451  0.020516138356988515         0.6831394766656447 1.0000   
         C         C         1.0       0.5317934649514182  0.019270148336344783         0.772655368561293  1.0000   
         C         C         1.0       0.9889770627839198  0.42892805671192463           0.8148461840456729 1.0000   
         C         C         1.0       0.009454990796223806          0.4530118780337262 0.8320846079922111 1.0000   
         C         C         1.0       0.501135055230741   0.45877309606993666           0.8236969619358976 1.0000   
         C         C         1.0       0.018972783646820313          0.49321233144536925          0.7941936747759014 1.0000   
         C         C         1.0       0.9968869272947519  0.470218719383509   0.7787634883737607 1.0000   
         C         C         1.0       0.9837489305567407  0.4375762747774682  0.7881116098601794 1.0000   
         C         C         1.0       0.9928050225003804  0.03674345663610794           0.8005953725517189 1.0000   
         C         C         1.0       0.9672557418019346  0.044713557937388584         0.7864249243188861 1.0000   
         C         C         1.0       0.9512663234384877  0.06439180712365648           0.7986724182635845 1.0000   
         C         C         1.0       0.95781450551185    0.07425526774538017           0.8260091128587018 1.0000   
         C         C         1.0       0.9813819888991749  0.06626917171783878           0.8401412463610617 1.0000   
         C         C         1.0       0.5166078681644534  0.05008271156047566           0.8147017244354536 1.0000   
         C         C         1.0       0.5850714718453507  0.06659472551128581           0.7851634441292481 1.0000   
         C         C         1.0       0.6165554110922173  0.0783233427964679  0.792526731674531  1.0000   
         C         C         1.0       0.6334608773664501  0.05567918614841127           0.7971132669567964 1.0000   
         C         C         1.0       0.6184356707745305  0.021611483739182195         0.7938498526514087 1.0000   
         C         C         1.0       0.5887282701533556  0.011150733124669084         0.783858968780608  1.0000   
         C         C         1.0       0.5697023594042853  0.032171949954932985         0.7807237298431796 1.0000   
         H         H         1.0       0.5355211161619051  0.4774581791597925  0.6136786124164466 1.0000   
         H         H         1.0       0.9844601280117466  0.46723017124282873           0.6863232190228158 1.0000   
         H         H         1.0       0.9681373437237432  0.4077634814710784  0.6677400974341051 1.0000   
         H         H         1.0       0.5062296970388803  0.4254600180184322  0.5902778654845513 1.0000   
         H         H         1.0       0.9544014439520933  0.02693611937639184           0.6829012835376594 1.0000   
         H         H         1.0       0.9206071390052101  0.05356672091144726           0.6585075255694786 1.0000   
         H         H         1.0       0.9775961654782808  0.0586900747045366  0.5859159427736849 1.0000   
         H         H         1.0       0.009315874815173375          0.03056406189803553          0.6092541947075838 1.0000   
         H         H         1.0       0.5269431543352129  0.45969609713361526           0.7007643487175507 1.0000   
         H         H         1.0       0.5247400122826213  0.4594848560694857  0.7488154376774242 1.0000   
         H         H         1.0       0.5301402516967423  0.07241185885267257           0.7354862313433516 1.0000   
         H         H         1.0       0.5181700386246194  0.069463886530509   0.6866342564224758 1.0000   
         H         H         1.0       0.01664622894855805           0.44705452788068417          0.8535091488176236 1.0000   
         H         H         1.0       0.5208630406692228  0.4738518245335629  0.8348873457335989 1.0000   
         H         H         1.0       0.9925346986607824  0.47506569184811537           0.757422034752299  1.0000   
         H         H         1.0       0.9703680282816396  0.4185986703259546  0.7742281540703069 1.0000   
         H         H         1.0       0.9595684323806905  0.03270702496460255           0.7662816826377933 1.0000   
         H         H         1.0       0.9328246356227825  0.06995307901383228           0.7878232441238981 1.0000   
         H         H         1.0       0.9855655746973788  0.07229884958345272           0.8617276170092142 1.0000   
         H         H         1.0       0.5357857768356724  0.04324034999611065           0.8249564032187283 1.0000   
         H         H         1.0       0.5712833570493582  0.08388386533030551           0.7820186911922773 1.0000   
         H         H         1.0       0.6269822032588788  0.10538418827577749           0.7951955361967761 1.0000   
         H         H         1.0       0.6288168846849227  0.0022938141076933086        0.8013944289091656 1.0000   
         H         H         1.0       0.5641726278423528  0.4775390704578296  0.7882273979035727 1.0000   
         C         C         1.0       0.7238607825997048  0.2917787032414035  0.4405640165964803 1.0000   
         C         C         1.0       0.7115295377307252  0.3114525806798843  0.45613836804165636          1.0000   
         C         C         1.0       0.7065917347647479  0.33986337968863056           0.4446205484309612 1.0000   
         C         C         1.0       0.7180679364055479  0.35016313830600587           0.41820280415152555          1.0000   
         C         C         1.0       0.7290391345045881  0.3279732115149329  0.4030688486528755 1.0000   
         C         C         1.0       0.7302445793742763  0.2981641869932091  0.413062051806191  1.0000   
         H         H         1.0       0.7079974147095173  0.3071965135603603  0.47774604749143584          1.0000   
         H         H         1.0       0.6971052435865293  0.3554293000539511  0.45771015397182513          1.0000   
         H         H         1.0       0.7329721450435066  0.3320705593395037  0.3809850827641724 1.0000   
         H         H         1.0       0.7380664741531863  0.2813566769548333  0.3999529259770585 1.0000   
         C         C         1.0       0.7752856949751444  0.3977181385447801  0.38270335649549264          1.0000   
         C         C         1.0       0.7443914771196893  0.39851148864246966           0.37935680723980764          1.0000   
         C         C         1.0       0.7387811942700918  0.4148439066846735  0.35647724234444833          1.0000   
         C         C         1.0       0.7620762841647576  0.4302076413638507  0.3377295957248164 1.0000   
         C         C         1.0       0.7931513399517838  0.4303776318441501  0.3411205746670964 1.0000   
         C         C         1.0       0.7992474571218554  0.41393037101293934           0.36453811167398104          1.0000   
         C         C         1.0       0.7170851855465228  0.384582090811815   0.403030249183649  1.0000   
         C         C         1.0       0.7235699906526953  0.4172412188687896  0.4235729544712573 1.0000   
         C         C         1.0       0.7120742570135647  0.4432925272399678  0.4165212806508106 1.0000   
         C         C         1.0       0.7145884544495564  0.4693589462799265  0.43467014585659147          1.0000   
         C         C         1.0       0.7294836814779543  0.4700668448790323  0.4598150152635521 1.0000   
         C         C         1.0       0.7432015299263264  0.4442247150335522  0.4656493852233538 1.0000   
         C         C         1.0       0.7406919736790438  0.41960859064671774           0.4470970493683715 1.0000   
         C         C         1.0       0.6723167215657778  0.35697242497367704           0.3653714306124064 1.0000   
         C         C         1.0       0.6418086613721464  0.3470904525542249  0.3557996942798219 1.0000   
         C         C         1.0       0.6162599041288158  0.3479883567052385  0.37217166928493506          1.0000   
         C         C         1.0       0.6228518436144754  0.3650035841531383  0.3973892126469771 1.0000   
         C         C         1.0       0.6535421082314417  0.37501346174639255           0.40739662658409753          1.0000   
         C         C         1.0       0.6800030762118932  0.37012140853513176           0.3926606710636143 1.0000   
         C         C         1.0       0.5783556100391442  0.33513197309744175           0.361868940912595  1.0000   
         C         C         1.0       0.5844560638977732  0.4281395534067505  0.3162964522900321 1.0000   
         C         C         1.0       0.5876380779132463  0.4003970411886264  0.302343029845953  1.0000   
         C         C         1.0       0.5855238208197268  0.3704414231549887  0.31462072021161874          1.0000   
         C         C         1.0       0.5780348606283322  0.36754522931241446           0.34303436216289324          1.0000   
         C         C         1.0       0.5752251613149605  0.39591920864272845           0.35691313505261746          1.0000   
         C         C         1.0       0.5777778518516388  0.42511263668543503           0.3438734121010683 1.0000   
         C         C         1.0       0.5521107879311543  0.32400614817014467           0.3856804034629586 1.0000   
         C         C         1.0       0.5568457894084708  0.30687698788629697           0.40890517625381884          1.0000   
         C         C         1.0       0.534751912220645   0.2998801034718769  0.4292335802305524 1.0000   
         C         C         1.0       0.5061998442638399  0.30808826457419813           0.42852962572136616          1.0000   
         C         C         1.0       0.5013682642757802  0.3251355545526825  0.4051193932591428 1.0000   
         C         C         1.0       0.5231185060659126  0.33246776448049054           0.3834979081476241 1.0000   
         C         C         1.0       0.5469511849746777  0.29179830488024483           0.3268779872349656 1.0000   
         C         C         1.0       0.5395390861969896  0.2623196840047344  0.3116818091605908 1.0000   
         C         C         1.0       0.5564713204349311  0.23927104859680726           0.3166179099857257 1.0000   
         C         C         1.0       0.5806804956125787  0.2461531918619696  0.33571236660506515          1.0000   
         C         C         1.0       0.5882558095401922  0.2764192191342645  0.3504639781428405 1.0000   
         C         C         1.0       0.5718644107183692  0.2999487187935684  0.3456556106825222 1.0000   
         H         H         1.0       0.780656391733      0.3842586920037436  0.4003464535071844 1.0000   
         H         H         1.0       0.714515185511577   0.4169114826086243  0.3516031458035832 1.0000   
         H         H         1.0       0.7548354168323663  0.44144512933738217           0.32034824424803443          1.0000   
         H         H         1.0       0.8238742818927622  0.4130919074059776  0.3661221520113158 1.0000   
         H         H         1.0       0.6981402309553364  0.4435871006912545  0.39768982550682663          1.0000   
         H         H         1.0       0.7015657229814966  0.48825294844352396           0.4307099675666926 1.0000   
         H         H         1.0       0.7540282552116179  0.44192024098904037           0.4854011478227108 1.0000   
         H         H         1.0       0.7520844242663972  0.40028967085216144           0.45189297326721034          1.0000   
         H         H         1.0       0.6896200835847114  0.35024646673075216           0.3530024948445333 1.0000   
         H         H         1.0       0.6387560578470157  0.3343443586305005  0.3362824461294478 1.0000   
         H         H         1.0       0.6048245784674808  0.3710718467878782  0.4088295725096193 1.0000   
         H         H         1.0       0.6550894124132485  0.3852952162018727  0.42749777669537203          1.0000   
         H         H         1.0       0.5828457126986025  0.39934094420251853           0.2810134157103501 1.0000   
         H         H         1.0       0.5867884849340725  0.3495500252516366  0.3027954146427891 1.0000   
         H         H         1.0       0.5714294614434757  0.3929713120885125  0.3787255573824463 1.0000   
         H         H         1.0       0.5742858306199482  0.4454383234877886  0.35335420001133505          1.0000   
         H         H         1.0       0.5766896738826326  0.29726315863345454           0.41293530104068144          1.0000   
         H         H         1.0       0.5378234580527897  0.2864525520468044  0.4477412638726861 1.0000   
         H         H         1.0       0.998063516490533   0.34069985427208005           0.4162587210754885 1.0000   
         H         H         1.0       0.5173825460748376  0.3454795906310779  0.36482275899403055          1.0000   
         H         H         1.0       0.5334664272444241  0.3084717144612851  0.3204326578578704 1.0000   
         H         H         1.0       0.5210621910758279  0.257251804847536   0.296591992174463  1.0000   
         H         H         1.0       0.5929733570005635  0.2289595015540298  0.34115730666208766          1.0000   
         H         H         1.0       0.6063034517365181  0.280141611223916   0.366839737267881  1.0000   
         C         C         1.0       0.7045436423793358  0.3059744451466687  0.9886056524683051 1.0000   
         C         C         1.0       0.7184740896805626  0.3096993589098517  0.014089875695527568         1.0000   
         C         C         1.0       0.7258188103659217  0.33713216721304695           0.029410723916165227         1.0000   
         C         C         1.0       0.717808703328621   0.36488811726807496           0.019875736923185186         1.0000   
         C         C         1.0       0.7049992107312327  0.36323380574808173           0.9936002999139149 1.0000   
         C         C         1.0       0.6981371177650256  0.33410048273976134           0.9776364600558239 1.0000   
         H         H         1.0       0.730454404133868   0.29071004503271425           0.02046399630944654          1.0000   
         H         H         1.0       0.7360474880424371  0.3337276328945014  0.04891811499917111          1.0000   
         H         H         1.0       0.6981637039718533  0.3834112545148008  0.9857277312409426 1.0000   
         H         H         1.0       0.6888861322664399  0.33428395333348665           0.9568782984052737 1.0000   
         C         C         1.0       0.7532280253023501  0.4358773312241421  0.0013845607023814654        1.0000   
         C         C         1.0       0.7317477475287314  0.4294007299364797  0.024314365307314987         1.0000   
         C         C         1.0       0.7224277591620865  0.45730823254374914           0.0343180451861694 1.0000   
         C         C         1.0       0.7307302763438652  0.48786115612489983           0.020202801708714357         1.0000   
         C         C         1.0       0.7472325042731766  0.4909056158951928  0.9969325904514624 1.0000   
         C         C         1.0       0.7575604966078839  0.4650692558531026  0.9869003283522434 1.0000   
         C         C         1.0       0.7215284651082277  0.39561322302134216           0.040968076053144814         1.0000   
         C         C         1.0       0.7498833661941243  0.40354381628970193           0.0627063967334006 1.0000   
         C         C         1.0       0.7450468013570507  0.41636948859776574           0.08851012430472444          1.0000   
         C         C         1.0       0.7700549177526491  0.42821373491925213           0.10730012523667713          1.0000   
         C         C         1.0       0.8002372570258537  0.42345835663275505           0.10094410707709728          1.0000   
         C         C         1.0       0.8032387877971364  0.40753918614456763           0.07665903165162634          1.0000   
         C         C         1.0       0.7782560005425442  0.39768836388978274           0.058094139661971064         1.0000   
         C         C         1.0       0.6589355624378078  0.393064452985222   0.038091799622989246         1.0000   
         C         C         1.0       0.6271259023875317  0.38105594726518116           0.046120257338120654         1.0000   
         C         C         1.0       0.6175328280595468  0.35647669070304233           0.06613782901735646          1.0000   
         C         C         1.0       0.6430367209936296  0.34978928992827024           0.08195715282711628          1.0000   
         C         C         1.0       0.6743576965754418  0.36237148872132563           0.07381509518530989          1.0000   
         C         C         1.0       0.6834132221787824  0.38447308592890295           0.0521805706656465 1.0000   
         C         C         1.0       0.5819343227584207  0.3408200863520103  0.07525813024501271          1.0000   
         C         C         1.0       0.5791078579749082  0.4278387936417678  0.12475125011028622          1.0000   
         C         C         1.0       0.5684485333226942  0.4259226633983438  0.0975871309857442 1.0000   
         C         C         1.0       0.5665876772440142  0.39800679277454015           0.0811249291861343 1.0000   
         C         C         1.0       0.5775676058400298  0.3725785558370049  0.09174140111058689          1.0000   
         C         C         1.0       0.5868259580013991  0.3741397933734426  0.11976866704876045          1.0000   
         C         C         1.0       0.58807114060688    0.40183365839350776           0.13497275858865732          1.0000   
         C         C         1.0       0.5708469856310536  0.30498104418332145           0.08989057253798673          1.0000   
         C         C         1.0       0.5814639129308878  0.2789004087350191  0.08068550496381696          1.0000   
         C         C         1.0       0.5702283023500127  0.24638894333443492           0.09059206735078769          1.0000   
         C         C         1.0       0.5476400377152029  0.24015626129022943           0.11055615565559275          1.0000   
         C         C         1.0       0.5361575334115334  0.266097990743878   0.12042253472330806          1.0000   
         C         C         1.0       0.5471748467703753  0.29787580922019274           0.10913318859705812          1.0000   
         C         C         1.0       0.5272993433921518  0.33532064516626003           0.05076895923800791          1.0000   
         C         C         1.0       0.5072048369025722  0.3255802832008601  0.029026680508186655         1.0000   
         C         C         1.0       0.5169423128698214  0.31226097311711415           0.005701848726871627         1.0000   
         C         C         1.0       0.5464073693152618  0.30746822838406335           0.004354353268450684         1.0000   
         C         C         1.0       0.5672547118809921  0.3172766142739037  0.025521858367169158         1.0000   
         C         C         1.0       0.5587292427908446  0.33303247984637424           0.048859191135148854         1.0000   
         H         H         1.0       0.7630293345963615  0.4166584546816748  0.9923562565976453 1.0000   
         H         H         1.0       0.7083471324710249  0.4550376463791882  0.05266871028416966          1.0000   
         H         H         1.0       0.7250002879506263  0.5100320360636451  0.029158051812506042         1.0000   
         H         H         1.0       0.7700624297284011  0.4665226895605845  0.9678374395359497 1.0000   
         H         H         1.0       0.7225733312132818  0.4236099132173097  0.09022877317556675          1.0000   
         H         H         1.0       0.7669837827183863  0.43671022484185545           0.1284225148116176 1.0000   
         H         H         1.0       0.8285167463888428  0.4092475264518454  0.07094635667860123          1.0000   
         H         H         1.0       0.7849077746292591  0.3900431405023601  0.039061508276989794         1.0000   
         H         H         1.0       0.6647167362798765  0.4070624122633951  0.018484571182225643         1.0000   
         H         H         1.0       0.609573447516474   0.3889282431854468  0.03447978866983743          1.0000   
         H         H         1.0       0.6348971325480803  0.3312384918867591  0.09843452700778113          1.0000   
         H         H         1.0       0.6923219490413481  0.35524033873217775           0.08772922456784386          1.0000   
         H         H         1.0       0.5629141833413777  0.4468372656862054  0.08736720817500905          1.0000   
         H         H         1.0       0.5617478381399225  0.3973803175346018  0.05963777737200814          1.0000   
         H         H         1.0       0.5934591804122835  0.35388659358705715           0.1297249728721017 1.0000   
         H         H         1.0       0.5990800741189151  0.40252775752848663           0.15548230849065944          1.0000   
         H         H         1.0       0.5966129953417278  0.2830852435509015  0.061751746270728235         1.0000   
         H         H         1.0       0.5786508272619704  0.2253249200173283  0.08546611276691596          1.0000   
         H         H         1.0       0.5192204910320725  0.2611212039327272  0.1372247252398809 1.0000   
         H         H         1.0       0.5374818080941156  0.31627016772282374           0.11696694867501546          1.0000   
         H         H         1.0       0.518014351948349   0.3451733269456266  0.06869881856396078          1.0000   
         H         H         1.0       0.9942795914314748  0.31995390586746975           0.030534278878361156         1.0000   
         H         H         1.0       0.5511209122091478  0.29505067254031714           0.9863276859659422 1.0000   
         H         H         1.0       0.590118431993038   0.31348328911866025           0.02330792221133709          1.0000   
         C         C         1.0       0.8744447254207178  0.49927892220142683           0.3196649670326975 1.0000   
         C         C         1.0       0.9102406880559218  0.011420256201867032         0.3384311762850201 1.0000   
         C         C         1.0       0.93303031267031    0.031890604930854057         0.3228863091108327 1.0000   
         C         C         1.0       0.9362923660251184  0.024562474745471446         0.29553269308525326          1.0000   
         C         C         1.0       0.9287126553565671  0.49947736723753    0.32287752563765576          1.0000   
         C         C         1.0       0.8979733329085625  0.48857495969642195           0.3329622799195778 1.0000   
         H         H         1.0       0.9127679222069229  0.016322437380865324         0.3601889097754203 1.0000   
         H         H         1.0       0.9494052768847115  0.05484253486857607           0.3311843081109469 1.0000   
         H         H         1.0       0.9430828053610146  0.4895771877565474  0.3369691620620547 1.0000   
         H         H         1.0       0.891372661862903   0.4738765763472581  0.3520522785264263 1.0000   
         C         C         1.0       0.4921090511693063  0.488708717567273   0.2787364799610981 1.0000   
         C         C         1.0       0.9894326987133383  0.01467172469196428           0.28930999116695294          1.0000   
         C         C         1.0       0.5350356690758803  0.5387235710004599  0.28192939082445584          1.0000   
         C         C         1.0       0.5567836398269727  0.520247318756335   0.27868729541456244          1.0000   
         C         C         1.0       0.5449290822871292  0.4853957574629973  0.27535941255711505          1.0000   
         C         C         1.0       0.5124036487666367  0.4703132681857181  0.27814262527103434          1.0000   
         C         C         1.0       0.9705150210878417  0.04189376912210923           0.28065067550349443          1.0000   
         C         C         1.0       0.47884649721787437           0.07915999402364732          0.2868813497724924 1.0000   
         C         C         1.0       0.5117834092714689  0.08987432901904167           0.2895890294732262 1.0000   
         C         C         1.0       0.5286585062982638  0.12226087983218888           0.2983034728407867 1.0000   
         C         C         1.0       0.5118262985236149  0.14403225985260001           0.304316629381827  1.0000   
         C         C         1.0       0.47982420517445373           0.13665921043929552          0.30037645483338865          1.0000   
         C         C         1.0       0.9662414657129832  0.10091143831458457           0.28652739060881516          1.0000   
         C         C         1.0       0.942774100274543   0.03984170219949817           0.2340232130115326 1.0000   
         C         C         1.0       0.9458504142594278  0.0394947229496933  0.20584648743396544          1.0000   
         C         C         1.0       0.9735207285117422  0.048852417101628416         0.19208942509268453          1.0000   
         C         C         1.0       0.0012364499345753899         0.06093964963424974          0.20768187289598886          1.0000   
         C         C         1.0       0.0006920795956468773         0.05654036535902317          0.23507191391279034          1.0000   
         C         C         1.0       0.9706763874419999  0.0446483882543361  0.2493468147606648 1.0000   
         C         C         1.0       0.9740962947933972  0.04514068851178717           0.15826997286294256          1.0000   
         C         C         1.0       0.540701161465628   0.48443983400216145           0.15613571013653738          1.0000   
         C         C         1.0       0.005277169741627841          0.4490117498373112 0.1533506746192055 1.0000   
         C         C         1.0       0.9850554695288843  0.4681292117734037  0.1586782224018581 1.0000   
         C         C         1.0       0.9921879973535707  0.01685317376452451           0.15629515798622745          1.0000   
         C         C         1.0       0.5099996639755723  0.027461670577620185         0.14996380231382092          1.0000   
         C         C         1.0       0.5272138868790491  0.004986261912859161         0.14980558464776084          1.0000   
         C         C         1.0       0.9923304490270659  0.07909275849665516           0.144841362356031  1.0000   
         C         C         1.0       0.9893878913039343  0.10851080513847114           0.1548308453784714 1.0000   
         C         C         1.0       0.003205532557617685          0.1384423370479505 0.14217448376237865          1.0000   
         C         C         1.0       0.022550800803808446          0.14172753151752984          0.11831550118883848          1.0000   
         C         C         1.0       0.02525100038680539           0.11206241878884238          0.10774577472925122          1.0000   
         C         C         1.0       0.011597226413561756          0.08203755055589085          0.12044872162630965          1.0000   
         C         C         1.0       0.9381863491310073  0.019087640131712675         0.11507835421723558          1.0000   
         C         C         1.0       0.9120493453363423  0.012271902113149203         0.09825435978750148          1.0000   
         C         C         1.0       0.8781249526927012  0.4872263046710363  0.12616188471905534          1.0000   
         C         C         1.0       0.8868085391755043  0.04146019571646452           0.12870785291148001          1.0000   
         C         C         1.0       0.9148200742034032  0.049144023194348865         0.14483374122703496          1.0000   
         C         C         1.0       0.9399289722651519  0.03533028926821056           0.1398067791715179 1.0000   
         H         H         1.0       0.4830725235692706  0.03560300686408343           0.3259463901210622 1.0000   
         H         H         1.0       0.03868439816094793           0.5424563296431788 0.283259951083195  1.0000   
         H         H         1.0       0.5823642973658565  0.5339976132118411  0.2774738084711177 1.0000   
         H         H         1.0       0.5034727558337309  0.44264943894495806           0.27823431089009304          1.0000   
         H         H         1.0       0.5267092431855778  0.07347712395844581           0.28442040777257005          1.0000   
         H         H         1.0       0.5543403861514419  0.12912129716933612           0.3019582371522597 1.0000   
         H         H         1.0       0.46678597528119964           0.15281556953294284          0.3061039266103953 1.0000   
         H         H         1.0       0.9427277967695712  0.09053785622429802           0.27860091730769665          1.0000   
         H         H         1.0       0.9354153794508996  0.4867634431953027  0.2501079038279082 1.0000   
         H         H         1.0       0.935042247686072   0.4855781968228095  0.2002880802456655 1.0000   
         H         H         1.0       0.5016286167992284  0.08428458883186955           0.1906242978341548 1.0000   
         H         H         1.0       0.5026134195792944  0.08452432500360037           0.2360822704492852 1.0000   
         H         H         1.0       0.9953370825876602  0.4214256017594966  0.15244523281692973          1.0000   
         H         H         1.0       0.9584647489708463  0.4549288629643986  0.16383846358676918          1.0000   
         H         H         1.0       0.5220426985983745  0.05343613058355781           0.15516598890963015          1.0000   
         H         H         1.0       0.5514898919421978  0.014164613395775207         0.15589485122852736          1.0000   
         H         H         1.0       0.9731404463648597  0.1068576610802117  0.1717912870930692 1.0000   
         H         H         1.0       0.9978236321141005  0.16027633640395078           0.14916612000843013          1.0000   
         H         H         1.0       0.040587022309401144          0.11333895884011169          0.08862561091801435          1.0000   
         H         H         1.0       0.012837237914536948          0.05904393619017365          0.10962122498701751          1.0000   
         H         H         1.0       0.9576653079704699  0.01152124422488764           0.10666123816479117          1.0000   
         H         H         1.0       0.9040282103382419  0.46554766527602504           0.0963035248287471 1.0000   
         H         H         1.0       0.8688426506203207  0.05417787306241049           0.13145358351960457          1.0000   
         H         H         1.0       0.9168957714365263  0.06888471144534998           0.1611557722683094 1.0000   
         C         C         1.0       0.03785662085454944           0.17509130123862265          0.10495405631110229          1.0000   
         C         C         1.0       0.5361133968645434  0.20693444549722112           0.1248023487700963 1.0000   
         H         H         1.0       0.5274504938482993  0.1778096442101234  0.08922079035780828          1.0000   
         H         H         1.0       0.019379730962885366          0.18595919372855624          0.09384894002798204          1.0000   
         H         H         1.0       0.5228981524050689  0.20456113107938498           0.14485529377201858          1.0000   
         H         H         1.0       0.5567897513103165  0.1977002789813209  0.1310483122615991 1.0000   
         C         C         1.0       0.8262162110417914  0.4375242198421679  0.12083659982362718          1.0000   
         C         C         1.0       0.8465928237938812  0.4720507309612266  0.11046884603095493          1.0000   
         H         H         1.0       0.8246892401839625  0.9817456719094481  0.1206915259185191 1.0000   
         H         H         1.0       0.8497408390780724  0.9586742298649372  0.1006036860319701 1.0000   
         H         H         1.0       0.8295310493232881  0.48778685070513184           0.1096680329662728 1.0000   
         H         H         1.0       0.8530888668716766  0.46919666083630246           0.08891146337357095          1.0000   
         C         C         1.0       0.5876556113282132  0.4608999137795984  0.13997381833574765          1.0000   
         C         C         1.0       0.5626203252829515  0.4625789210023929  0.16151801110128944          1.0000   
         H         H         1.0       0.6107980825160658  0.46587366240557854           0.14901895727096942          1.0000   
         H         H         1.0       0.5927917961348429  0.482116343664151   0.12531913142399245          1.0000   
         H         H         1.0       0.5490380907637572  0.4364992689974888  0.16900280355718006          1.0000   
         H         H         1.0       0.5752601487818483  0.4704594103622562  0.18181711867111242          1.0000   
         C         C         1.0       0.8400963771422785  0.4853634855347412  0.33154038839628247          1.0000   
         C         C         1.0       0.8217846655282277  0.44981996063338003           0.32174215228577574          1.0000   
         H         H         1.0       0.8394135644337446  0.48426082047884816           0.3529915407197324 1.0000   
         H         H         1.0       0.8721938990419895  0.9556641197996237  0.36314937573875694          1.0000   
         H         H         1.0       0.8148075724017957  0.45023528139854024           0.300358431260611  1.0000   
         H         H         1.0       0.8379744986953889  0.43215724244134435           0.3209282558094271 1.0000   
         C         C         1.0       0.5483814848614853  0.2051787584771513  0.29970175043329167          1.0000   
         C         C         1.0       0.5288755342502311  0.17827856455723007           0.31744982988375586          1.0000   
         H         H         1.0       0.5718760163975614  0.20133814082695398           0.29426218318849867          1.0000   
         H         H         1.0       0.5341318241798128  0.2071382723856311  0.2804696116832847 1.0000   
         H         H         1.0       0.5127280868985499  0.18631697471711858           0.3316603580053077 1.0000   
         H         H         1.0       0.5465812876646018  0.1738088103500878  0.3316417830285146 1.0000   
         C         C         1.0       0.5682478097825805  0.463012606420443   0.2751130217723805 1.0000   
         C         C         1.0       0.58699761944904    0.4626143240739078  0.30349258747796587          1.0000   
         H         H         1.0       0.5532118275474334  0.4371589547134874  0.26640009562249584          1.0000   
         H         H         1.0       0.5855656854006358  0.4715541699298406  0.25805060648649164          1.0000   
         H         H         1.0       0.6116712813037263  0.47461063435756756           0.2966345719882901 1.0000   
         H         H         1.0       0.5816794607583565  0.47970378044828815           0.3192111496030627 1.0000   
         C         C         1.0       0.7628340891394068  0.028825316732769363         0.4947652140461325 1.0000   
         C         C         1.0       0.7316337045766877  0.001141761279596444         0.49375549063709867          1.0000   
         H         H         1.0       0.7737599191512284  0.03702866327505335           0.4743594873246012 1.0000   
         H         H         1.0       0.7799974896201683  0.016633120270946537         0.5038428989605168 1.0000   
         H         H         1.0       0.7117038452721943  0.010927383123329094         0.48726762902976306          1.0000   
         H         H         1.0       0.7236266989362018  0.9905248756032224  0.5129152535210711 1.0000   
         C         C         1.0       0.9825794002162751  0.2890775593643165  0.46793436373318387          1.0000   
         C         C         1.0       0.4811356053313668  0.303735964642362   0.45169781435262996          1.0000   
         H         H         1.0       0.9962318201629559  0.2711514437694868  0.46380771771555507          1.0000   
         H         H         1.0       0.9608304521547555  0.2846330229766378  0.4541581270617213 1.0000   
         H         H         1.0       0.9966051155619066  0.34376271085662446           0.46318469458170897          1.0000   
         H         H         1.0       0.49710577203313894           0.30695591193180427          0.4707009406226667 1.0000   
         C         C         1.0       0.7297327709135012  0.2599656023885641  0.45330756646358394          1.0000   
         C         C         1.0       0.7663865308281342  0.26744410516618233           0.4602625420502186 1.0000   
         H         H         1.0       0.7203328793587536  0.23786290752192685           0.43933388854312777          1.0000   
         H         H         1.0       0.7145678352053862  0.25485122637985336           0.4712852103396361 1.0000   
         H         H         1.0       0.7745543355606685  0.29256505748055234           0.46870216513113794          1.0000   
         H         H         1.0       0.7761680312987023  0.26376368743304085           0.4401074610387964 1.0000   
         C         C         1.0       0.9331529515417696  0.08455442242314684           0.6082366142040379 1.0000   
         C         C         1.0       0.9551266150766002  0.12103379474881429           0.6157691620756254 1.0000   
         H         H         1.0       0.9330439466118553  0.08170818197934687           0.5853652073155691 1.0000   
         H         H         1.0       0.9079854490644292  0.07923686762917867           0.6149594714638743 1.0000   
         H         H         1.0       0.9789640256865152  0.124850689748096   0.6073695252152582 1.0000   
         H         H         1.0       0.957590854507379   0.12444402112268864           0.638657971712673  1.0000   
         C         C         1.0       0.6442821430869468  0.07150710102040879           0.603215490977447  1.0000   
         C         C         1.0       0.6690243628888873  0.10327685780591352           0.6149950350361094 1.0000   
         H         H         1.0       0.6558304317642579  0.050794244018234055         0.5998795355340538 1.0000   
         H         H         1.0       0.6385735803067946  0.0805066856146835  0.5821336569077377 1.0000   
         H         H         1.0       0.6792625795744159  0.09949399792202093           0.6351259265574973 1.0000   
         H         H         1.0       0.6566965342964669  0.12252599543730512           0.6196916881344824 1.0000   
         C         C         1.0       0.9649044971259874  0.3537175001465821  0.6374893091047298 1.0000   
         C         C         1.0       0.9853033510236684  0.3838735462806976  0.6200466835107288 1.0000   
         H         H         1.0       0.9796115439820934  0.3507209744748845  0.6571569683073442 1.0000   
         H         H         1.0       0.9444895552054297  0.3587347526020163  0.6457074204803279 1.0000   
         H         H         1.0       0.9692271139375834  0.38570938105974195           0.6019981073716101 1.0000   
         H         H         1.0       0.00701043276872948           0.379953225017441  0.6103230248476957 1.0000   
         C         C         1.0       0.9871531882332433  0.3135333343441254  0.9642402713289225 1.0000   
         C         C         1.0       0.9945222694378543  0.28500324323310905           0.9812399005361063 1.0000   
         H         H         1.0       0.009718480810768648          0.32977147951351127          0.956440198957494  1.0000   
         H         H         1.0       0.974768983954927   0.32571393303236584           0.9778071853976048 1.0000   
         H         H         1.0       0.5050168003065844  0.30084910504840195           0.9594713994439892 1.0000   
         H         H         1.0       0.0010573301667091695         0.2673357235652567 0.9680105070968205 1.0000   
         C         C         1.0       0.7459672522656963  0.055573850106216405         0.9739060962679864 1.0000   
         C         C         1.0       0.7273047929759306  0.021754810343289882         0.9609781294867391 1.0000   
         H         H         1.0       0.7683914327337884  0.05430199098990464           0.981835231845302  1.0000   
         H         H         1.0       0.7329781014048236  0.05961983234271409           0.9925898068117667 1.0000   
         H         H         1.0       0.7008209420696957  0.01830842572378867           0.9608585427671398 1.0000   
         H         H         1.0       0.7350946608714997  0.01809354878435857           0.9386053932644631 1.0000   
         C         C         1.0       0.7394097664102391  0.28326825141778356           0.9544422499216528 1.0000   
         C         C         1.0       0.7072258296744443  0.2769373783311608  0.9710434891540851 1.0000   
         H         H         1.0       0.7583536697393464  0.29158736984502825           0.9694517889621552 1.0000   
         H         H         1.0       0.7434678296385933  0.30573932303751766           0.9423861336568653 1.0000   
         H         H         1.0       0.6890861194026309  0.2688424698645955  0.9555640379234812 1.0000   
         H         H         1.0       0.7033886324789607  0.25256289207123717           0.9831582714086037 1.0000   
         C         C         1.0       0.9396365229644926  0.09871752389548251           0.8386626603209664 1.0000   
         C         C         1.0       0.9512498922907703  0.13298972642435553           0.8257014182722101 1.0000   
         H         H         1.0       0.91310346166009    0.08648980818563216           0.8354996419478247 1.0000   
         H         H         1.0       0.9450579359541824  0.10210388568373095           0.8607041774038332 1.0000   
         H         H         1.0       0.9464955356594907  0.1309779189730971  0.8030733666503032 1.0000   
         H         H         1.0       0.9773472239793911  0.14581108952279728           0.8257647240726658 1.0000   
         C         C         1.0       0.6653157329779742  0.06349570776095777           0.8140969950414568 1.0000   
         C         C         1.0       0.6939839789550631  0.0933035488996714  0.8041939555853276 1.0000   
         H         H         1.0       0.6556828277998057  0.0685391668730622  0.8352794394972838 1.0000   
         H         H         1.0       0.6730857326108941  0.0394216212777107  0.815101586687594  1.0000   
         H         H         1.0       0.6841000581231202  0.10871381023222289           0.7897435610642202 1.0000   
         H         H         1.0       0.7087187319538849  0.08190876385396424           0.7905705061457138 1.0000   
         C         C         1.0       0.9774883203224797  0.39057532026312497           0.8240047621942116 1.0000   
         C         C         1.0       0.9443210587790675  0.3708724076739876  0.8135092935284991 1.0000   
         H         H         1.0       0.9944042058202328  0.37630588067629217           0.8181488676100616 1.0000   
         H         H         1.0       0.9779776330584952  0.3905982927068475  0.8457644305575801 1.0000   
         H         H         1.0       0.9446266402347673  0.36691824592343497           0.7912380126524279 1.0000   
         H         H         1.0       0.9294025446421298  0.38731739400856413           0.8189866226168455 1.0000   
         C         C         1.0       0.9308666087477643  0.6499356886001645  0.8354218205434447 1.0000   
         C         C         1.0       0.9358967864717679  0.6557896438386351  0.8629324427529462 1.0000   
         C         C         1.0       0.9216490664437084  0.6766721041965225  0.8759190914992213 1.0000   
         C         C         1.0       0.9090485686938177  0.6981441950644282  0.8607294432077498 1.0000   
         C         C         1.0       0.9024874330498693  0.690219644959407   0.8326221733201441 1.0000   
         C         C         1.0       0.9125597599060732  0.6658610400561663  0.8203585973486637 1.0000   
         H         H         1.0       0.9521275096073639  0.646571899038599   0.8761542669884289 1.0000   
         H         H         1.0       0.921438977356496   0.6780176050737886  0.8986330718938349 1.0000   
         H         H         1.0       0.8900183622587955  0.7051361423401902  0.821305213422232  1.0000   
         H         H         1.0       0.9061382575984881  0.6594379840013994  0.7988199887411792 1.0000   
         C         C         1.0       0.9306096666556841  0.7701443927628459  0.8417600908567688 1.0000   
         C         C         1.0       0.9032868836537729  0.7607206788762235  0.8594136436458678 1.0000   
         C         C         1.0       0.8887233426566287  0.7854796755206963  0.8663795366826342 1.0000   
         C         C         1.0       0.8990791494622445  0.8162244609928752  0.8545543155823714 1.0000   
         C         C         1.0       0.9249473933480328  0.8246101404147049  0.8372144128204912 1.0000   
         C         C         1.0       0.9405711475213593  0.8016741031502845  0.8298949213502006 1.0000   
         C         C         1.0       0.8973453586300819  0.7266248483671921  0.8768824985822771 1.0000   
         C         C         1.0       0.9183788514634204  0.7415341024881256  0.9024694320145634 1.0000   
         C         C         1.0       0.9049010326118733  0.7522191072749626  0.9252557066985208 1.0000   
         C         C         1.0       0.9229916042340315  0.7615489037749877  0.9482967189482336 1.0000   
         C         C         1.0       0.9549597460324571  0.7640496510285546  0.9483634663628546 1.0000   
         C         C         1.0       0.9693298527952018  0.757525238255113   0.9254345968251773 1.0000   
         C         C         1.0       0.9512189303866184  0.7469133463957863  0.9027119754299768 1.0000   
         C         C         1.0       0.8378780970550916  0.7090378979856475  0.866989759556108  1.0000   
         C         C         1.0       0.8051121591228234  0.6934960075689048  0.8729668853549774 1.0000   
         C         C         1.0       0.7957805469788216  0.6718188405541284  0.8952890654255753 1.0000   
         C         C         1.0       0.8202520562535429  0.6684278690305743  0.9125871421698016 1.0000   
         C         C         1.0       0.8518904565387226  0.6864107898096433  0.9069537196416032 1.0000   
         C         C         1.0       0.8619558587438825  0.7070426665746398  0.8841497363099333 1.0000   
         C         C         1.0       0.7579017222918206  0.6588544586416681  0.9042434773989396 1.0000   
         C         C         1.0       0.7567265115084583  0.7473283280974113  0.951636735867658  1.0000   
         C         C         1.0       0.7511233089024563  0.7463867296129287  0.9236506658490765 1.0000   
         C         C         1.0       0.751463045291692   0.718191169048778   0.908942044183981  1.0000   
         C         C         1.0       0.7577859757226557  0.6909699441814673  0.9214800817494233 1.0000   
         C         C         1.0       0.7629825067349484  0.6921587938309867  0.9493086173875072 1.0000   
         C         C         1.0       0.7625782180139503  0.7197139619012664  0.9633430469441505 1.0000   
         C         C         1.0       0.7479682324125675  0.6204581941790076  0.9181225318915825 1.0000   
         C         C         1.0       0.7618036391690155  0.5973734218301788  0.9078974942664096 1.0000   
         C         C         1.0       0.75393184884773    0.5640565087715911  0.91838205514373   1.0000   
         C         C         1.0       0.7356484812805921  0.5567713440283707  0.9421012448282825 1.0000   
         C         C         1.0       0.7221541460562613  0.5792863000755796  0.9516478925715703 1.0000   
         C         C         1.0       0.72462467585192    0.6098236403214841  0.9383555003674466 1.0000   
         C         C         1.0       0.7014201009526924  0.6510893956683607  0.8797358986715136 1.0000   
         C         C         1.0       0.6800991624056686  0.641263829912275   0.8577571009932212 1.0000   
         C         C         1.0       0.6887783584769472  0.6263890090079786  0.8350937591114986 1.0000   
         C         C         1.0       0.7190094411979561  0.6220305977196391  0.8345534613351075 1.0000   
         C         C         1.0       0.740181840890323   0.6324520370592327  0.8549368751297588 1.0000   
         C         C         1.0       0.7333654241192149  0.6482408734192885  0.8782967258244113 1.0000   
         H         H         1.0       0.9432576174899088  0.752549554955739   0.8371503070015337 1.0000   
         H         H         1.0       0.8685126408688285  0.7792757565904976  0.8806055584348682 1.0000   
         H         H         1.0       0.8895175664076677  0.8357793279256014  0.8644098310102909 1.0000   
         H         H         1.0       0.9585536283831434  0.8080969887173499  0.8137607596988157 1.0000   
         H         H         1.0       0.8803505552900261  0.7535284707372569  0.9266917791052196 1.0000   
         H         H         1.0       0.9140741756474623  0.7700363353174644  0.9670636208509914 1.0000   
         H         H         1.0       0.9960398047166099  0.7641102907802519  0.9242185177894376 1.0000   
         H         H         1.0       0.9641867773083501  0.7422124153195262  0.8846299658438912 1.0000   
         H         H         1.0       0.845915156157916   0.7260099225280714  0.8497785639079566 1.0000   
         H         H         1.0       0.7880200630378309  0.7025781963978577  0.861645387012925  1.0000   
         H         H         1.0       0.8135255972517673  0.6555955113974578  0.9322754549373226 1.0000   
         H         H         1.0       0.870787905635253   0.6865904804189332  0.9212692533957878 1.0000   
         H         H         1.0       0.7572243569237085  0.7694423705480409  0.9115724897853669 1.0000   
         H         H         1.0       0.7506406318536021  0.7185168505918087  0.886270788604283  1.0000   
         H         H         1.0       0.7676037577683235  0.6711758948935875  0.9594346217312756 1.0000   
         H         H         1.0       0.7679337361798896  0.7194758791222395  0.9858008107324127 1.0000   
         H         H         1.0       0.7795194236262222  0.6058986685916883  0.893515170451597  1.0000   
         H         H         1.0       0.761227442081951   0.5442468093350551  0.9077107579362201 1.0000   
         H         H         1.0       0.7089531208054021  0.5723119811356412  0.9707804682490478 1.0000   
         H         H         1.0       0.7157058571331966  0.629398203211568   0.947131839460629  1.0000   
         H         H         1.0       0.6925289717044925  0.6622119045818301  0.8979574262408468 1.0000   
         H         H         1.0       0.6566843424463079  0.643960256426707   0.8578354356656092 1.0000   
         H         H         1.0       0.7247527741453129  0.6071147079440777  0.818290396513001  1.0000   
         H         H         1.0       0.7621746973888777  0.6270917517586884  0.8532804483328338 1.0000   
         C         C         1.0       0.9201116721640843  0.6322394033070391  0.6134177037021302 1.0000   
         C         C         1.0       0.9063501270336666  0.650929693824613   0.6291247015180745 1.0000   
         C         C         1.0       0.8949518803910684  0.6758276258771647  0.6174533409328121 1.0000   
         C         C         1.0       0.8996249631392662  0.6844289757185904  0.5899805661036458 1.0000   
         C         C         1.0       0.9098271846767445  0.6624130374233107  0.5744358901174755 1.0000   
         C         C         1.0       0.9216062497878769  0.6375247416474461  0.5857147087285184 1.0000   
         H         H         1.0       0.9052445395629322  0.6490750386461268  0.6518922336259589 1.0000   
         H         H         1.0       0.8861898243757551  0.6906770023528768  0.6311410651281905 1.0000   
         H         H         1.0       0.9127824034245586  0.6648303182117266  0.552345591649924  1.0000   
         H         H         1.0       0.9335543407971969  0.6258899692893932  0.571317718503721  1.0000   
         C         C         1.0       0.9493399057391262  0.7344698330286505  0.5510557799666906 1.0000   
         C         C         1.0       0.9175517065491705  0.7357511934000035  0.55197803900425   1.0000   
         C         C         1.0       0.9085660071289067  0.7545429534385439  0.5319990987084693 1.0000   
         C         C         1.0       0.9278913201932439  0.7665683278683424  0.5101056717268057 1.0000   
         C         C         1.0       0.956144926849368   0.7598071541122194  0.5069959483256842 1.0000   
         C         C         1.0       0.9689059670465723  0.7465306661965323  0.5287377853040687 1.0000   
         C         C         1.0       0.8929074107444042  0.7180180530391684  0.5768125220263636 1.0000   
         C         C         1.0       0.9003689044845771  0.7496330874784408  0.5980129042222293 1.0000   
         C         C         1.0       0.8799977204818439  0.7693512820708084  0.5991663015237179 1.0000   
         C         C         1.0       0.8895737104175222  0.7991950490910844  0.6131312836539404 1.0000   
         C         C         1.0       0.9200475413506891  0.8079541657291819  0.6261892990770148 1.0000   
         C         C         1.0       0.9382698091321015  0.787598109059056   0.6279478913317239 1.0000   
         C         C         1.0       0.9291783759752469  0.7585021745616051  0.6125237364266761 1.0000   
         C         C         1.0       0.8527098908174638  0.6863660251936363  0.5421518360215547 1.0000   
         C         C         1.0       0.8220972131838661  0.6742999697778939  0.5310423177881821 1.0000   
         C         C         1.0       0.7956029610582263  0.669431143164488   0.548059730960075  1.0000   
         C         C         1.0       0.8004842627462285  0.6795606630509942  0.5747897139177433 1.0000   
         C         C         1.0       0.8305959543383755  0.6957459113628481  0.5837538406213726 1.0000   
         C         C         1.0       0.8576201842048006  0.7009227228162423  0.5673803893526284 1.0000   
         C         C         1.0       0.7583460182200777  0.6496826393976086  0.5370691515602318 1.0000   
         C         C         1.0       0.7480661458531297  0.7415144482880305  0.4974151453374925 1.0000   
         C         C         1.0       0.7606032741641459  0.719562650849629   0.483624935972001  1.0000   
         C         C         1.0       0.7616850991912596  0.6896164678891432  0.49530379892769866          1.0000   
         C         C         1.0       0.7493338536555347  0.6802860255331544  0.5211941900249052 1.0000   
         C         C         1.0       0.7355609939174464  0.7019979300984046  0.5337617976140681 1.0000   
         C         C         1.0       0.730802679250221   0.7298707664488946  0.5211105307924002 1.0000   
         C         C         1.0       0.7333046599525698  0.6305440843731703  0.5599719080797078 1.0000   
         C         C         1.0       0.7416267962004709  0.611932595376998   0.5806588940220108 1.0000   
         C         C         1.0       0.7196387009663484  0.5907900648890239  0.5981941466831378 1.0000   
         C         C         1.0       0.6874368336573131  0.5869488434196003  0.5942670113206194 1.0000   
         C         C         1.0       0.6786800387690679  0.602038695648102   0.5717721862443335 1.0000   
         C         C         1.0       0.7008576381744744  0.6250844899413475  0.55581590718561   1.0000   
         C         C         1.0       0.7395160582179573  0.610767945707199   0.4956797791469844 1.0000   
         C         C         1.0       0.7391257948364622  0.5832084107419029  0.4789144567056583 1.0000   
         C         C         1.0       0.7580745265032515  0.5624049819443122  0.48590803660478055          1.0000   
         C         C         1.0       0.7776290064240412  0.5710980501062469  0.5084515543740757 1.0000   
         C         C         1.0       0.7804721255172878  0.5983766716783517  0.5234940778566902 1.0000   
         C         C         1.0       0.7609202460469372  0.6186555294200319  0.5183674175535331 1.0000   
         H         H         1.0       0.9574265984786615  0.7206074104518702  0.5673492225462065 1.0000   
         H         H         1.0       0.888735945354293   0.7624270414624942  0.5354971572024675 1.0000   
         H         H         1.0       0.9206422416894906  0.7821349299973481  0.49591682197638315          1.0000   
         H         H         1.0       0.9925199067833628  0.7426114154513472  0.528067797806582  1.0000   
         H         H         1.0       0.8572698893566965  0.7656266449788504  0.5890415653934155 1.0000   
         H         H         1.0       0.8737310303743475  0.8151397809240921  0.6142643697058987 1.0000   
         H         H         1.0       0.960416894295686   0.794962741567892   0.6393596828882083 1.0000   
         H         H         1.0       0.9454306773401938  0.743845128698774   0.6125435210083856 1.0000   
         H         H         1.0       0.8739767120555213  0.6889818149962634  0.5285525653027585 1.0000   
         H         H         1.0       0.8214364153152763  0.6694259382468218  0.5085390419138474 1.0000   
         H         H         1.0       0.7813479799253762  0.6764677749519581  0.5902155879450478 1.0000   
         H         H         1.0       0.8312921720413502  0.7029718909394095  0.6054096975844634 1.0000   
         H         H         1.0       0.7730485076206762  0.7245162403948323  0.46315433589759175          1.0000   
         H         H         1.0       0.7767843616629069  0.6757772215344252  0.4863273852555487 1.0000   
         H         H         1.0       0.7276944215192424  0.6981548803873813  0.553904254854622  1.0000   
         H         H         1.0       0.7174259821407595  0.7457684761768605  0.529863038041505  1.0000   
         H         H         1.0       0.7659294359984027  0.610050336545611   0.5788831840383538 1.0000   
         H         H         1.0       0.727623738485289   0.5755191704301946  0.6130657556772676 1.0000   
         H         H         1.0       0.6544726694661962  0.5929307192595066  0.5640382061787661 1.0000   
         H         H         1.0       0.6930365705183477  0.6361445599349247  0.5377547967855326 1.0000   
         H         H         1.0       0.7214469332214261  0.6224489634642904  0.49195129656633135          1.0000   
         H         H         1.0       0.7218140487959352  0.5742728282853896  0.4627725927154452 1.0000   
         H         H         1.0       0.7935840123665202  0.5559721765573935  0.515151747820403  1.0000   
         H         H         1.0       0.7943080497996565  0.6022802898398142  0.542345730953796  1.0000   
         C         C         1.0       0.616908557577732   0.5570723888813469  0.6451080704955258 1.0000   
         C         C         1.0       0.5961858777364841  0.5757772609828634  0.6494431766606293 1.0000   
         C         C         1.0       0.5651628203374178  0.5595589690837363  0.6557479827184405 1.0000   
         C         C         1.0       0.5531050584957822  0.5241687036846343  0.6570663613975135 1.0000   
         C         C         1.0       0.5743056962587793  0.5059053608581154  0.6541203188209365 1.0000   
         C         C         1.0       0.6054849135551182  0.5222187608268144  0.6456712749607342 1.0000   
         H         H         1.0       0.6031403099922314  0.6023342094487425  0.6496052527243706 1.0000   
         H         H         1.0       0.5479898083340626  0.5753512387095995  0.658411394582445  1.0000   
         H         H         1.0       0.5614421880940819  0.9883543983551185  0.6405304031889355 1.0000   
         H         H         1.0       0.6210801773388596  0.5068098207504438  0.6423265176389822 1.0000   
         C         C         1.0       0.5019852457884831  0.969573736513827   0.6153776423050764 1.0000   
         C         C         1.0       0.49603851197748045           0.9820203494475063 0.6408221972503029 1.0000   
         C         C         1.0       0.963856446623113   0.9511153245968542  0.6582766041587982 1.0000   
         C         C         1.0       0.949775241527278   0.9207320195925928  0.6473953296442928 1.0000   
         C         C         1.0       0.9671630895460545  0.9078205300875368  0.6286829349057053 1.0000   
         C         C         1.0       0.4882299950491783  0.9364227774146924  0.6084382385012238 1.0000   
         C         C         1.0       0.5139354102943495  0.01970525431118242           0.6498708913921796 1.0000   
         C         C         1.0       0.0020831350375389857         0.5380671290800528 0.6473445468684883 1.0000   
         C         C         1.0       0.972815730053606   0.5310429199919174  0.6612648014027541 1.0000   
         C         C         1.0       0.9467587539522584  0.5402715064099     0.6497247726159998 1.0000   
         C         C         1.0       0.9493410369512418  0.5543303389492646  0.6241723262670144 1.0000   
         C         C         1.0       0.9781670901165115  0.5604783873403502  0.6100454158058356 1.0000   
         C         C         1.0       0.004143201050852863          0.5531777375571536 0.6209044821115439 1.0000   
         C         C         1.0       0.5350550464149428  0.9971493048355078  0.6956763162587529 1.0000   
         C         C         1.0       0.5413109010032586  0.9980646622881951  0.7234369432599401 1.0000   
         C         C         1.0       0.5137271983603364  0.5066462849787622  0.7527367784479926 1.0000   
         C         C         1.0       0.5104844184637822  0.5328478476437731  0.7378366222442904 1.0000   
         C         C         1.0       0.5117648405462532  0.5333971894933205  0.7094578836814662 1.0000   
         C         C         1.0       0.5161288052177212  0.5075836359082564  0.6946846288292298 1.0000   
         C         C         1.0       0.5091792522683082  0.5026042516044925  0.7844886327505153 1.0000   
         C         C         1.0       0.962621195201198   0.9199876723434933  0.8284392804433575 1.0000   
         C         C         1.0       0.9926569971443567  0.9391471884913918  0.8382145074994382 1.0000   
         C         C         1.0       0.5164777452854857  0.9692322780226119  0.8075873816960331 1.0000   
         C         C         1.0       0.9940501941279005  0.9804402160650313  0.802038640059274  1.0000   
         C         C         1.0       0.9644132345977813  0.961372775368868   0.7942314030714663 1.0000   
         C         C         1.0       0.9482493388270781  0.9317378329904019  0.8082292864765838 1.0000   
         C         C         1.0       0.012072116730827531          0.5499772251359889 0.7953453300877382 1.0000   
         C         C         1.0       0.9804660836592137  0.54286218041444    0.7848380686499653 1.0000   
         C         C         1.0       0.9583452165866931  0.5571437294445937  0.7973268164132019 1.0000   
         C         C         1.0       0.9668237762691743  0.5760763465967154  0.8212055899838424 1.0000   
         C         C         1.0       0.9948071798332313  0.5805440291873003  0.8320987500424589 1.0000   
         C         C         1.0       0.4899145575015205  0.5380798706561104  0.8203250197446269 1.0000   
         C         C         1.0       0.5571331049231344  0.5557807082721542  0.7961365944834466 1.0000   
         C         C         1.0       0.5886923084650381  0.5723090888352714  0.7991598374073928 1.0000   
         C         C         1.0       0.6107515105294076  0.5548614556076095  0.8031147106398325 1.0000   
         C         C         1.0       0.6006364740766469  0.5203987064220865  0.8013371887423472 1.0000   
         C         C         1.0       0.569853980433937   0.5046839896007479  0.7934511002814978 1.0000   
         C         C         1.0       0.5461917416478927  0.5208731288690375  0.7931347148354835 1.0000   
         H         H         1.0       0.5178982233395196  0.9867262363764397  0.6004489322444202 1.0000   
         H         H         1.0       0.9485022499952095  0.9582248770927688  0.6734293495876277 1.0000   
         H         H         1.0       0.9272102945337766  0.9073897318503255  0.6545800597487771 1.0000   
         H         H         1.0       0.4938753114815632  0.9287713431432824  0.5886120047621572 1.0000   
         H         H         1.0       0.9699602323991806  0.5200844856248019  0.6814401479428519 1.0000   
         H         H         1.0       0.9245427409360748  0.5343511330081949  0.6615466024390817 1.0000   
         H         H         1.0       0.9822346002028075  0.5709168726429417  0.589203083269859  1.0000   
         H         H         1.0       0.025594280347555065          0.5596784361836246 0.6091297979748223 1.0000   
         H         H         1.0       0.5352317216774005  0.9751620073775777  0.6838941662766584 1.0000   
         H         H         1.0       0.5459225430595429  0.9779087017209119  0.733861288842329  1.0000   
         H         H         1.0       0.5092180605936032  0.55571173028121    0.7493597812762587 1.0000   
         H         H         1.0       0.5065747214336098  0.5543353174872362  0.6994360337713775 1.0000   
         H         H         1.0       0.0053278618431320535         0.9312350992897787 0.8548409943077087 1.0000   
         H         H         1.0       0.5370011817884714  0.9832770139257351  0.8205970259402935 1.0000   
         H         H         1.0       0.9540051120100204  0.9695120841439528  0.7755726146010323 1.0000   
         H         H         1.0       0.9240317827976215  0.9183506834555263  0.8040978936270475 1.0000   
         H         H         1.0       0.9722394882509628  0.5281987924291894  0.7662515405235703 1.0000   
         H         H         1.0       0.9344343500340259  0.5528153536957329  0.7882566127639197 1.0000   
         H         H         1.0       0.9989583560682332  0.5946820849416166  0.850461476546529  1.0000   
         H         H         1.0       0.513175105670735   0.5402757646975157  0.8323534804866087 1.0000   
         H         H         1.0       0.5402200631583977  0.5697264025634136  0.7943367635202396 1.0000   
         H         H         1.0       0.5968142662646279  0.6005075982475157  0.801891472590541  1.0000   
         H         H         1.0       0.6195291662316849  0.508943052079465   0.8021195485158604 1.0000   
         H         H         1.0       0.5786753772625203  0.9840737790725468  0.7821609478772747 1.0000   
         C         C         1.0       0.7172424486594341  0.8014666320921575  0.45236738156873657          1.0000   
         C         C         1.0       0.7043474125650391  0.8245219681310926  0.46542581706246905          1.0000   
         C         C         1.0       0.7060712269834672  0.8532386624757549  0.45201837660664906          1.0000   
         C         C         1.0       0.7179881395241279  0.8594023111089237  0.4257326344855074 1.0000   
         C         C         1.0       0.7294314772671779  0.8358905005484011  0.41239066416862985          1.0000   
         C         C         1.0       0.7290085039726419  0.8076210349055835  0.4259318282574835 1.0000   
         H         H         1.0       0.6940043489144458  0.8185672700674109  0.4860446597165432 1.0000   
         H         H         1.0       0.6917672169320368  0.8683806239645027  0.46107562874468566          1.0000   
         H         H         1.0       0.740832458153513   0.8399220119843422  0.39260369223269864          1.0000   
         H         H         1.0       0.7416809047256869  0.7915250968170952  0.4170142535348662 1.0000   
         C         C         1.0       0.7777666367641465  0.9077617216394849  0.3951671806826394 1.0000   
         C         C         1.0       0.7475683084250319  0.9109411538413874  0.38960544780947937          1.0000   
         C         C         1.0       0.7458637230780272  0.9352351472624416  0.36850252708481473          1.0000   
         C         C         1.0       0.7723661339736695  0.9513677405988678  0.3532427256832946 1.0000   
         C         C         1.0       0.8017330922067302  0.9468636273522829  0.3581844399503132 1.0000   
         C         C         1.0       0.8042437591420362  0.9239716230114265  0.378483331207383  1.0000   
         C         C         1.0       0.7204938083350504  0.8939408797000218  0.41069794557386796          1.0000   
         C         C         1.0       0.7272640303110969  0.9252418547101923  0.4328602586649737 1.0000   
         C         C         1.0       0.713457288766014   0.9510651039595023  0.4291974633577242 1.0000   
         C         C         1.0       0.7166508674191582  0.9757389687284774  0.4483165091688057 1.0000   
         C         C         1.0       0.7332797772972004  0.9755486056646183  0.47157666843178925          1.0000   
         C         C         1.0       0.7493084695674127  0.9530360213532916  0.4748874709895779 1.0000   
         C         C         1.0       0.7471588333679328  0.9286022309126735  0.4548233267965942 1.0000   
         C         C         1.0       0.6804607055582075  0.8664815825464451  0.3714507586349875 1.0000   
         C         C         1.0       0.649484233255014   0.8539976712803999  0.3615319852891724 1.0000   
         C         C         1.0       0.6235220904518503  0.8534481681075211  0.37860407294546866          1.0000   
         C         C         1.0       0.6288873290453559  0.8720833852060931  0.4027755679364335 1.0000   
         C         C         1.0       0.6588834596726179  0.8846348093829913  0.4128316521994126 1.0000   
         C         C         1.0       0.6857113249385363  0.8819641900576879  0.3973691249961435 1.0000   
         C         C         1.0       0.5872373673274551  0.8332869816636645  0.37133460618245245          1.0000   
         C         C         1.0       0.5659780011081195  0.9238802626234357  0.33791558729703325          1.0000   
         C         C         1.0       0.5803248991477516  0.9035172490731076  0.32206354195122816          1.0000   
         C         C         1.0       0.5851671076148233  0.8744187585951949  0.3326893638862887 1.0000   
         C         C         1.0       0.5776583799644157  0.8639242826103058  0.35953081707837464          1.0000   
         C         C         1.0       0.5627148722252969  0.8832569941974898  0.37482846959646215          1.0000   
         C         C         1.0       0.5571694647355702  0.9115723204789284  0.3639134218316719 1.0000   
         C         C         1.0       0.5660240874413093  0.8141555963694016  0.3951187291451158 1.0000   
         C         C         1.0       0.5803479738669292  0.8021099196908844  0.41609143041989743          1.0000   
         C         C         1.0       0.5628964848347962  0.7861029250406516  0.4393403835286661 1.0000   
         C         C         1.0       0.5299735353554814  0.7803217558053688  0.43847254981748224          1.0000   
         C         C         1.0       0.5147603048042996  0.7880958023629624  0.41556489209329245          1.0000   
         C         C         1.0       0.5324456057967107  0.809089837728001   0.3956858269615927 1.0000   
         C         C         1.0       0.5566860537195427  0.7925896728453996  0.3317211223487705 1.0000   
         C         C         1.0       0.5481467006276737  0.762090487589624   0.31829415688952284          1.0000   
         C         C         1.0       0.5617992302191923  0.7381621426427122  0.32592866789344005          1.0000   
         C         C         1.0       0.5871284234138566  0.7461911885051605  0.34360915690765725          1.0000   
         C         C         1.0       0.5974465666250799  0.7767958291868834  0.35648489102433284          1.0000   
         C         C         1.0       0.5818470417687964  0.8010917038834224  0.3514691739591784 1.0000   
         H         H         1.0       0.781611174250685   0.8955750492025542  0.41279129518771107          1.0000   
         H         H         1.0       0.7231565306357023  0.9396486324195451  0.36632632332735293          1.0000   
         H         H         1.0       0.7705349386767252  0.9724771701360092  0.3417854393574248 1.0000   
         H         H         1.0       0.8263626379370661  0.9205093841610531  0.3822767280269049 1.0000   
         H         H         1.0       0.6978134787334289  0.9505938876886615  0.41167410962962214          1.0000   
         H         H         1.0       0.7046023252234431  0.9936835928492144  0.4435486787540669 1.0000   
         H         H         1.0       0.7658642062277007  0.9547451888500678  0.4916792415454652 1.0000   
         H         H         1.0       0.7610777732383994  0.9104901580375157  0.45734615153401303          1.0000   
         H         H         1.0       0.6977557919634976  0.8624056995426278  0.35755668321791184          1.0000   
         H         H         1.0       0.6456019609585887  0.8383718030388567  0.34316775581926257          1.0000   
         H         H         1.0       0.6089121613229086  0.8742590356971331  0.41480356024279497          1.0000   
         H         H         1.0       0.6586129830205402  0.8902248293744575  0.43477440018311003          1.0000   
         H         H         1.0       0.5845903599720769  0.9057793029052233  0.30004325837290224          1.0000   
         H         H         1.0       0.5964023980697315  0.8612243620163712  0.3192512190792422 1.0000   
         H         H         1.0       0.5528816343324094  0.8751353546456214  0.39474851628919366          1.0000   
         H         H         1.0       0.5473488285753986  0.9262024949194099  0.378338948853656  1.0000   
         H         H         1.0       0.6065628054919194  0.8088027554649025  0.41836352428635526          1.0000   
         H         H         1.0       0.5770782695502678  0.7811951856288444  0.45604245218738915          1.0000   
         H         H         1.0       0.9887560009615136  0.8291427219797436  0.42645959858763866          1.0000   
         H         H         1.0       0.518997775921685   0.8188220692712542  0.3810693785341234 1.0000   
         H         H         1.0       0.5407038902401887  0.8095003452574545  0.32715569348364354          1.0000   
         H         H         1.0       0.5279527304591555  0.7580891142083569  0.3042341650736187 1.0000   
         H         H         1.0       0.5950170751407328  0.7254919629590497  0.35262233078100297          1.0000   
         H         H         1.0       0.6169257264843754  0.779432066682088   0.37111800673678896          1.0000   
         C         C         1.0       0.728284449276715   0.8094510731937521  0.9946822051508882 1.0000   
         C         C         1.0       0.7345685778112448  0.8157214499411014  0.022865064980574105         1.0000   
         C         C         1.0       0.7327463720857103  0.8455290368125652  0.033198330026682446         1.0000   
         C         C         1.0       0.7237225329475929  0.869237359813286   0.016194929846938638         1.0000   
         C         C         1.0       0.716324202744884   0.8605484542044249  0.9895782772838008 1.0000   
         C         C         1.0       0.7173260727377561  0.8315764914680882  0.9786501232354697 1.0000   
         H         H         1.0       0.7410845782153153  0.7971455439807666  0.03598424620281465          1.0000   
         H         H         1.0       0.7404207327110311  0.8534590084832772  0.05451961740722936          1.0000   
         H         H         1.0       0.7059311877407192  0.8746461670394111  0.9768734423955239 1.0000   
         H         H         1.0       0.7102064382429712  0.827563377436651   0.9561910504667901 1.0000   
         C         C         1.0       0.7432983292284603  0.9415672771736836  0.9864787035908946 1.0000   
         C         C         1.0       0.7250450221559159  0.9362111052558793  0.010734065384832778         1.0000   
         C         C         1.0       0.7090259393773806  0.9588454043462353  0.01802226139325919          1.0000   
         C         C         1.0       0.7104985833985179  0.9871628274156148  0.0025269372267298085        1.0000   
         C         C         1.0       0.7271775027202231  0.9913615686053909  0.9783181586528772 1.0000   
         C         C         1.0       0.7450259983627187  0.9696758368181045  0.9705140636003632 1.0000   
         C         C         1.0       0.7224054532409185  0.9042051803718493  0.03003259675221515          1.0000   
         C         C         1.0       0.7512867933495636  0.9217036051458571  0.05191827991485352          1.0000   
         C         C         1.0       0.7481826418389529  0.9407645675212366  0.07487886069444322          1.0000   
         C         C         1.0       0.774935575547765   0.95733533048559    0.09005409121284973          1.0000   
         C         C         1.0       0.8041493690883273  0.9561917074180599  0.0828280527268037 1.0000   
         C         C         1.0       0.8083350199153513  0.9381958488952633  0.05986765898017144          1.0000   
         C         C         1.0       0.7823545156003354  0.9209086200394047  0.04496522310425603          1.0000   
         C         C         1.0       0.6628968043126691  0.8868035662153055  0.02929147046950723          1.0000   
         C         C         1.0       0.6329125280304289  0.8662202727254651  0.037196816487672375         1.0000   
         C         C         1.0       0.6264020003141613  0.855359501524285   0.0641197633137155 1.0000   
         C         C         1.0       0.6527878749425123  0.8618518991210373  0.0814915899739114 1.0000   
         C         C         1.0       0.6830932915002743  0.8767187920793234  0.07174147932217127          1.0000   
         C         C         1.0       0.6893377574006764  0.8899039833708589  0.04568718430308775          1.0000   
         C         C         1.0       0.5907098862233403  0.8361023703033242  0.07497850135006277          1.0000   
         C         C         1.0       0.5709567686627532  0.9286664733145094  0.10495168293069694          1.0000   
         C         C         1.0       0.567283242444727   0.9194899339322373  0.07750399242554405          1.0000   
         C         C         1.0       0.5745258825971132  0.8911111279469868  0.06727822711628335          1.0000   
         C         C         1.0       0.5829914274739438  0.8692502283866315  0.08594882378743007          1.0000   
         C         C         1.0       0.5870065746320784  0.8789227623524414  0.11338832667546987          1.0000   
         C         C         1.0       0.5802792765180323  0.9064847276867833  0.12302840998464655          1.0000   
         C         C         1.0       0.5871715313949248  0.8035472176789271  0.09353826920969445          1.0000   
         C         C         1.0       0.6064281707490258  0.783218099863058   0.09227940779800924          1.0000   
         C         C         1.0       0.5994320432129734  0.7537143556145576  0.10622023233617285          1.0000   
         C         C         1.0       0.5734007868629314  0.7445269983292079  0.12325331617759148          1.0000   
         C         C         1.0       0.5544491015063685  0.7651084487480485  0.12566089125424576          1.0000   
         C         C         1.0       0.5621082161754112  0.7952507580298115  0.11219435352196858          1.0000   
         C         C         1.0       0.5327415135248851  0.814071712008464   0.052506126713371744         1.0000   
         C         C         1.0       0.511912834959612   0.8002222423337203  0.03144089517048747          1.0000   
         C         C         1.0       0.5222162347871607  0.7848107690231012  0.009995353679744984         1.0000   
         C         C         1.0       0.5527493434943669  0.7838894746254057  0.009680902784244508         1.0000   
         C         C         1.0       0.57424965251965    0.7994404777794407  0.029734231794837317         1.0000   
         C         C         1.0       0.5643839059227922  0.8154654384785863  0.052086913974746386         1.0000   
         H         H         1.0       0.7586165947950253  0.9267212435815564  0.9793951571713146 1.0000   
         H         H         1.0       0.6960151224187395  0.9564398300095366  0.0371824769196465 1.0000   
         H         H         1.0       0.6989162735483785  0.005598167098930684         0.007819591782904723         1.0000   
         H         H         1.0       0.7584838712573654  0.9740552699815511  0.9501184392134743 1.0000   
         H         H         1.0       0.7278875802640482  0.9443464206326199  0.08219417251004778          1.0000   
         H         H         1.0       0.7706086116770245  0.9718763522264879  0.10770754725060484          1.0000   
         H         H         1.0       0.8326590167334732  0.940666421883673   0.05306696352229443          1.0000   
         H         H         1.0       0.7863809798755553  0.9058409371098304  0.027958540562486044         1.0000   
         H         H         1.0       0.667291224992394   0.8969769360801455  0.007614088145136321         1.0000   
         H         H         1.0       0.6123735722535039  0.8592252412094823  0.022077667341985668         1.0000   
         H         H         1.0       0.6480113930222693  0.8522959271318408  0.1017843233247933 1.0000   
         H         H         1.0       0.7024096509303605  0.8734533100395875  0.08475559614228069          1.0000   
         H         H         1.0       0.5605552362785015  0.9367425543963153  0.06359707079399869          1.0000   
         H         H         1.0       0.5716533881539996  0.8867713243747178  0.04552454162793685          1.0000   
         H         H         1.0       0.5947690180634394  0.8633625875573747  0.12783551734912954          1.0000   
         H         H         1.0       0.5797683493950049  0.9085041203083208  0.14506472886801394          1.0000   
         H         H         1.0       0.6295274602370549  0.7913351826656909  0.0809824595930566 1.0000   
         H         H         1.0       0.6125560532218376  0.7371573722509409  0.10281921532200561          1.0000   
         H         H         1.0       0.5328560422730625  0.7570128737980479  0.13804103587785882          1.0000   
         H         H         1.0       0.5458001827973171  0.8098691438237551  0.11715493216449695          1.0000   
         H         H         1.0       0.5238681657619683  0.8264108453397495  0.06930857244812548          1.0000   
         H         H         1.0       0.968276517435468   0.7738572895027431  0.04271509175265872          1.0000   
         H         H         1.0       0.5603440542411048  0.7691703914455235  0.9936507610971289 1.0000   
         H         H         1.0       0.5982532261127814  0.8001646745959483  0.028833515214689135         1.0000   
         C         C         1.0       0.8866743113465143  0.9843138705356691  0.32640944404702193          1.0000   
         C         C         1.0       0.8809999850959305  0.5191123615058069  0.2962062469541779 1.0000   
         C         C         1.0       0.9115700151254598  0.5278092197829095  0.28521411093522014          1.0000   
         C         C         1.0       0.9366286482607206  0.5191015822154843  0.29838454209942367          1.0000   
         C         C         1.0       0.9140579601388149  0.9969472352167261  0.2842513621404878 1.0000   
         C         C         1.0       0.8900889717334972  0.976836124340123   0.29898835053508327          1.0000   
         H         H         1.0       0.8632461112220773  0.5249161887011932  0.2853364000861503 1.0000   
         H         H         1.0       0.9156166720785592  0.5428570030160362  0.2670363066325057 1.0000   
         H         H         1.0       0.9178493746747324  0.9851961049699706  0.2660577979082134 1.0000   
         H         H         1.0       0.8772215750962168  0.9547664190355459  0.29036225391084364          1.0000   
         C         C         1.0       0.4865052174129368  0.014924860659739192         0.3139840688596054 1.0000   
         C         C         1.0       0.9939484713984432  0.5045795796146     0.29067812974254503          1.0000   
         C         C         1.0       0.47946046086100447           0.9868530205782848 0.2714192866097592 1.0000   
         C         C         1.0       0.49275878437424825           0.963367344316981  0.28233854215200765          1.0000   
         C         C         1.0       0.5040802903451924  0.9671292436227366  0.3091294767984295 1.0000   
         C         C         1.0       0.4999550571391678  0.9918175065933084  0.32502932334295875          1.0000   
         C         C         1.0       0.9730537445625905  0.5306372153915118  0.2854015500493897 1.0000   
         C         C         1.0       0.4869556267424009  0.5809470291083879  0.29502470988065826          1.0000   
         C         C         1.0       0.5066402444484542  0.5867281271629126  0.31884635030982006          1.0000   
         C         C         1.0       0.5147749148379962  0.6178672518022846  0.3308854263327253 1.0000   
         C         C         1.0       0.506107198579375   0.643816523745053   0.3192372122550951 1.0000   
         C         C         1.0       0.48953678051631555           0.6384780818609836 0.29480205870505866          1.0000   
         C         C         1.0       0.9748971337838198  0.5959967882186372  0.2882813784814236 1.0000   
         C         C         1.0       0.9522326367154289  0.505319714576779   0.23873166790134714          1.0000   
         C         C         1.0       0.9528043195140722  0.5049380559820414  0.21024102800013011          1.0000   
         C         C         1.0       0.976522801566599   0.5300868416898026  0.19550500182085076          1.0000   
         C         C         1.0       0.9984129753987363  0.5547978927637598  0.21116602061641698          1.0000   
         C         C         1.0       0.9993789094835206  0.5537373312964706  0.23860593307215455          1.0000   
         C         C         1.0       0.9751555080943551  0.5312926919250859  0.2532029326170067 1.0000   
         C         C         1.0       0.9737676897355224  0.525979006237566   0.16321121598689933          1.0000   
         C         C         1.0       0.5127862754238344  0.9720769988322788  0.14129754452379487          1.0000   
         C         C         1.0       0.9877078291637209  0.9572422920379666  0.15902485330122584          1.0000   
         C         C         1.0       0.9745244632753175  0.9827245799146206  0.16045789633562396          1.0000   
         C         C         1.0       0.9965305600181236  0.5030246497647671  0.1562893531801982 1.0000   
         C         C         1.0       0.5342602235048162  0.5384183029953558  0.15015862261222324          1.0000   
         C         C         1.0       0.5538011489385136  0.5182187216104825  0.15057121649492386          1.0000   
         C         C         1.0       0.9841019568767644  0.5621708218543406  0.1495464756925703 1.0000   
         C         C         1.0       0.9741417004872431  0.5872561612875874  0.16103948918732897          1.0000   
         C         C         1.0       0.9827680797575167  0.6197657516072552  0.15006002523553402          1.0000   
         C         C         1.0       0.0032348801205661637         0.6284449335766676 0.12788197251723865          1.0000   
         C         C         1.0       0.009413310305231182          0.6017999423122679 0.11381308107300148          1.0000   
         C         C         1.0       0.001495900939261663          0.5698241810889545 0.12503673243914035          1.0000   
         C         C         1.0       0.9341499354063746  0.49416760085782385           0.12591880994988014          1.0000   
         C         C         1.0       0.9047975218126809  0.4809056881035071  0.11466390263298412          1.0000   
         C         C         1.0       0.8861652740374579  0.023684846732219267         0.10466357397993457          1.0000   
         C         C         1.0       0.8815471707006669  0.5071211852682069  0.14888003565121674          1.0000   
         C         C         1.0       0.910559072053829   0.5171568471824446  0.16177149845325728          1.0000   
         C         C         1.0       0.9382928836368615  0.5111975575859001  0.15095338830109323          1.0000   
         H         H         1.0       0.4665545095543474  0.47494008865407816           0.2769133587673111 1.0000   
         H         H         1.0       0.9745247590225318  0.9839702543825044  0.25300486077354056          1.0000   
         H         H         1.0       0.49388455424959876           0.9420524932982193 0.269147572723339  1.0000   
         H         H         1.0       0.5090448236578037  0.9952758539413947  0.34465753271141064          1.0000   
         H         H         1.0       0.515142984116395   0.5669832552410764  0.32719046377467015          1.0000   
         H         H         1.0       0.5316431548431746  0.6226919192720513  0.34862294455020293          1.0000   
         H         H         1.0       0.4843254209147407  0.6590545737459355  0.28486182363641127          1.0000   
         H         H         1.0       0.9587858130605684  0.5910270432056364  0.2709983841993527 1.0000   
         H         H         1.0       0.9186348377526589  0.0319341459178446  0.2427584868044401 1.0000   
         H         H         1.0       0.9241169314428374  0.03261109036855481           0.19545850349566135          1.0000   
         H         H         1.0       0.525132861399557   0.5869595621929696  0.19529258516096923          1.0000   
         H         H         1.0       0.5188492436160675  0.5883611666043996  0.24307014379927508          1.0000   
         H         H         1.0       0.9708555071967638  0.9314136524226908  0.1569840314918964 1.0000   
         H         H         1.0       0.9490752741348435  0.9784798719540183  0.161988056639916  1.0000   
         H         H         1.0       0.5465947568623175  0.5643153750496182  0.151301187309144  1.0000   
         H         H         1.0       0.5798753836026199  0.5278761109741326  0.14937349884225914          1.0000   
         H         H         1.0       0.9625042599870923  0.5856112664154406  0.1806264356252254 1.0000   
         H         H         1.0       0.9757143336510982  0.6388607566056381  0.16068444302492982          1.0000   
         H         H         1.0       0.02443854167488002           0.6078407589114192 0.09536615068170277          1.0000   
         H         H         1.0       0.009941685107382803          0.5510359092517859 0.11467793141861654          1.0000   
         H         H         1.0       0.9546754843709374  0.48720457087953734           0.11658620802058134          1.0000   
         H         H         1.0       0.9115361371562627  0.9975692789921602  0.0800570856015574 1.0000   
         H         H         1.0       0.8592693268125559  0.5118517786731926  0.15734744590831382          1.0000   
         H         H         1.0       0.9133044155963802  0.5324285668301544  0.18084161330873924          1.0000   
         C         C         1.0       0.015842849765067113          0.6649668048035775 0.11556881309139386          1.0000   
         C         C         1.0       0.5643419702633563  0.7091639357860317  0.1339065157010258 1.0000   
         H         H         1.0       0.5448485421020816  0.6865766411500399  0.09359244259633924          1.0000   
         H         H         1.0       0.9929963306523921  0.673320222708569   0.11296664249869363          1.0000   
         H         H         1.0       0.555030465304446   0.7077656297164833  0.15431716155079814          1.0000   
         H         H         1.0       0.5871869657386787  0.7008195757395038  0.13618025224513405          1.0000   
         C         C         1.0       0.8331439506535662  0.9756360976430898  0.10026442585497354          1.0000   
         C         C         1.0       0.8534451242297766  0.010372615105390448         0.08967777494193564          1.0000   
         H         H         1.0       0.8181189258501237  0.43958332845688364           0.14272162838571004          1.0000   
         H         H         1.0       0.8410216630727428  0.4199111920295687  0.12325487050432335          1.0000   
         H         H         1.0       0.840010285151992   0.028098276424876723         0.09103293466719899          1.0000   
         H         H         1.0       0.8572365371895848  0.008193766918805911         0.067780626546305  1.0000   
         C         C         1.0       0.5578098212432376  0.9569892321091006  0.11555129741375668          1.0000   
         C         C         1.0       0.530724751430157   0.9457879956723737  0.13827851299605726          1.0000   
         H         H         1.0       0.5780324219864671  0.9771578214689615  0.12287197867181215          1.0000   
         H         H         1.0       0.5502905636218567  0.9686755103044216  0.0982732805965131 1.0000   
         H         H         1.0       0.5148804059370491  0.9183761242305875  0.13705284509435528          1.0000   
         H         H         1.0       0.5438819772055509  0.9469343228146115  0.1575597267454647 1.0000   
         C         C         1.0       0.8611466433859383  0.9591833816118692  0.34336400032910785          1.0000   
         C         C         1.0       0.8318093479989633  0.9712906286038969  0.3435705022599938 1.0000   
         H         H         1.0       0.8543999936455724  0.9335850578669113  0.33206884585507385          1.0000   
         H         H         1.0       0.8258595331650093  0.5027663507407866  0.3263852316727043 1.0000   
         H         H         1.0       0.835536234246285   0.9946687394151541  0.3564450237120236 1.0000   
         H         H         1.0       0.8263059629571982  0.9782755763184218  0.32257943779942033          1.0000   
         C         C         1.0       0.5486954068929286  0.7020027964083392  0.31446563718811965          1.0000   
         C         C         1.0       0.5189499958311882  0.6798171956056217  0.3304968843875342 1.0000   
         H         H         1.0       0.5682925169089714  0.6903089173011426  0.31608277131894125          1.0000   
         H         H         1.0       0.5436239381250542  0.6990618547122194  0.2931062640356644 1.0000   
         H         H         1.0       0.5002264972858944  0.6936449607541706  0.32997211578713875          1.0000   
         H         H         1.0       0.5227573723983467  0.6790711344514645  0.35412529448101615          1.0000   
         C         C         1.0       0.5193729616348557  0.9402764468389871  0.31930647765170067          1.0000   
         C         C         1.0       0.5567588488612281  0.952148510574464   0.32443683108034105          1.0000   
         H         H         1.0       0.5069076815054527  0.9309844437583028  0.3385695127405083 1.0000   
         H         H         1.0       0.5129957999806578  0.9169022557887984  0.3063743733696781 1.0000   
         H         H         1.0       0.5712987571047582  0.9637844673813374  0.3064640308329323 1.0000   
         H         H         1.0       0.5614113671532741  0.9737600171171973  0.3394191034030425 1.0000   
         C         C         1.0       0.7581184825255144  0.5332816508484223  0.4669383770183194 1.0000   
         C         C         1.0       0.7384888856096512  0.5004658387104444  0.47973784410240466          1.0000   
         H         H         1.0       0.7501130073323987  0.5395933735892415  0.44543050214053154          1.0000   
         H         H         1.0       0.7820103087245337  0.5292856934351485  0.4623359371392006 1.0000   
         H         H         1.0       0.7138152731917202  0.4994051449103915  0.48670252059086283          1.0000   
         H         H         1.0       0.7495331696158328  0.4963057536657665  0.49799808177180444          1.0000   
         C         C         1.0       0.9751243655879805  0.7688972523127815  0.47841169556861013          1.0000   
         C         C         1.0       0.5123650394435967  0.7690753113408176  0.4648606702039013 1.0000   
         H         H         1.0       0.9883882925937072  0.7507436456086185  0.4738743976708089 1.0000   
         H         H         1.0       0.9573892876631195  0.7635481354378251  0.46094396094102136          1.0000   
         H         H         1.0       0.9843086787226946  0.8226596200254475  0.47172623368031025          1.0000   
         H         H         1.0       0.48929209669317475           0.7495400754025249 0.459862263834862  1.0000   
         C         C         1.0       0.7168610461906504  0.768193412191412   0.4652738084780847 1.0000   
         C         C         1.0       0.7466614596808901  0.773739703965714   0.483468098412032  1.0000   
         H         H         1.0       0.714368851093811   0.7492134301414863  0.44937133723579553          1.0000   
         H         H         1.0       0.6937331953717727  0.7581978206526805  0.47779238124737644          1.0000   
         H         H         1.0       0.7450646593004786  0.7922552281749079  0.500016829550461  1.0000   
         H         H         1.0       0.7686121718111154  0.7860545809672814  0.4710263005544498 1.0000   
         C         C         1.0       0.9235430623078626  0.571479835586312   0.6183205543682537 1.0000   
         C         C         1.0       0.9373774660320078  0.6090860942056725  0.6258306126500145 1.0000   
         H         H         1.0       0.9169596110192928  0.5683340755334426  0.5961537073076115 1.0000   
         H         H         1.0       0.8999137720350234  0.558768560628005   0.6294545161838809 1.0000   
         H         H         1.0       0.9639584791693006  0.6184130997021505  0.6201158000963846 1.0000   
         H         H         1.0       0.9395055286959184  0.6106679245068526  0.6481876047365844 1.0000   
         C         C         1.0       0.6517578163711287  0.5758710638426119  0.637599080345904  1.0000   
         C         C         1.0       0.6640006804478464  0.5625318592961488  0.6112066069927283 1.0000   
         H         H         1.0       0.6548913189817533  0.6025882892656041  0.6335180277264227 1.0000   
         H         H         1.0       0.6652851157329004  0.5717013359449108  0.6555742837763412 1.0000   
         H         H         1.0       0.6420708376638269  0.5538512191114751  0.5963015906424809 1.0000   
         H         H         1.0       0.6725512966737641  0.5415102501361858  0.6160653974858527 1.0000   
         C         C         1.0       0.9310135200686889  0.8442484588214209  0.636748278346035  1.0000   
         C         C         1.0       0.9523706967164867  0.8714306018800545  0.6162430629323454 1.0000   
         H         H         1.0       0.9476728191833873  0.8445725722647287  0.655229170692958  1.0000   
         H         H         1.0       0.9118604698788936  0.8505897526634902  0.6459587403926172 1.0000   
         H         H         1.0       0.9370877896861947  0.8753079846050016  0.5987662156584256 1.0000   
         H         H         1.0       0.9701510963657435  0.8623681489978623  0.6059307527461123 1.0000   
         C         C         1.0       0.9754214746224371  0.7787595309595307  0.9731915413491143 1.0000   
         C         C         1.0       0.9802905498254526  0.7510555510181558  0.9931281886833534 1.0000   
         H         H         1.0       0.9979329880566885  0.7962933435428667  0.9650569219784383 1.0000   
         H         H         1.0       0.9643397744970216  0.795567900324353   0.9827172640191453 1.0000   
         H         H         1.0       0.4744037357349874  0.761940308801283   0.9954314333501061 1.0000   
         H         H         1.0       0.9890292592369608  0.7328300228073739  0.9825743785999613 1.0000   
         C         C         1.0       0.7291126347558047  0.5225301451748138  0.9561645587249866 1.0000   
         C         C         1.0       0.7532016203857655  0.5232426720840925  0.9794209636371578 1.0000   
         H         H         1.0       0.7053376346913031  0.5151470722071884  0.9621103547352218 1.0000   
         H         H         1.0       0.7314148689693634  0.5052669998299616  0.9408918844734652 1.0000   
         H         H         1.0       0.7776134073506805  0.5265248374410714  0.9703340433687225 1.0000   
         H         H         1.0       0.7583991966375907  0.5466211120546288  0.9922109606015209 1.0000   
         C         C         1.0       0.7608477812917454  0.7784054305669744  0.9682673080470128 1.0000   
         C         C         1.0       0.7279938676867065  0.775028709349445   0.9821311323236949 1.0000   
         H         H         1.0       0.7810757551325881  0.7821653914518367  0.9836523005989889 1.0000   
         H         H         1.0       0.7684278463794769  0.8014226769532932  0.9554216962323917 1.0000   
         H         H         1.0       0.708642181878772   0.766870488116722   0.9654392972441479 1.0000   
         H         H         1.0       0.7211767054489071  0.7550531982853107  0.9969993190517991 1.0000   
         C         C         1.0       0.9450503032088331  0.5938269675460643  0.8358483424838896 1.0000   
         C         C         1.0       0.9488847867851296  0.6275288658085698  0.8220506358640431 1.0000   
         H         H         1.0       0.9199220412916331  0.5787506591460366  0.8336048214481422 1.0000   
         H         H         1.0       0.9485351964856015  0.5954522819607987  0.8568940105742726 1.0000   
         H         H         1.0       0.9423537336624774  0.6220125922472808  0.7993468270777704 1.0000   
         H         H         1.0       0.9753882380422332  0.6383684970410953  0.8211945025765226 1.0000   
         C         C         1.0       0.6458142238224547  0.5725039840915942  0.8145280586654872 1.0000   
         C         C         1.0       0.6622096929522917  0.6103810433943306  0.8138652317045736 1.0000   
         H         H         1.0       0.642236618199437   0.5597477168879821  0.8345285729584123 1.0000   
         H         H         1.0       0.665320235404871   0.5628798124543232  0.8048915700748618 1.0000   
         H         H         1.0       0.6449554568798928  0.6252130460931792  0.8143883656477009 1.0000   
         H         H         1.0       0.6716494882324252  0.6165229073337354  0.792317299853243  1.0000   
         C         C         1.0       0.9473631031748319  0.8861120407955764  0.8433775914416552 1.0000   
         C         C         1.0       0.9325449640027287  0.8572751325507232  0.8226664705976968 1.0000   
         H         H         1.0       0.9691527050656731  0.8795731800740064  0.8528059785894276 1.0000   
         H         H         1.0       0.9307176035250466  0.8874522083124657  0.8589065276206047 1.0000   
         H         H         1.0       0.949405147462558   0.8572242239571761  0.8047898370930574 1.0000   
         H         H         1.0       0.9097638402054926  0.8598944506889107  0.8133695599273519 1.0000

