data_0
_chemical_formula_sum                   'C1200 H960'
_cell_length_a                          34.55190539211597
_cell_length_b                          34.55955157931634
_cell_length_c                          34.158389544432374
_cell_angle_alpha                       90.66585705294916
_cell_angle_beta                        89.93540667588408
_cell_angle_gamma                       89.81278672821317
_space_group_name_H-M_alt               'P 1'
_space_group_IT_number                  1
loop_
  _space_group_symop_operation_xyz
         'x, y, z' 
loop_
  _atom_site_type_symbol
  _atom_site_label
  _atom_site_symmetry_multiplicity
  _atom_site_fract_x
  _atom_site_fract_y
  _atom_site_fract_z
  _atom_site_occupancy
         C         C         1.0       0.16871544983314496           0.9904165980874478 0.643043240689578  1.0000   
         C         C         1.0       0.14618334006349795           0.9618655109054765 0.6263038653115187 1.0000   
         C         C         1.0       0.15980209913168758           0.9348647938054031 0.6003420945826107 1.0000   
         C         C         1.0       0.19867930433199435           0.9340387733208002 0.5909743464319911 1.0000   
         C         C         1.0       0.2203987683844688  0.9624548477800122  0.6075358712492871 1.0000   
         C         C         1.0       0.2066232426960715  0.9902371775796086  0.6344737679767387 1.0000   
         H         H         1.0       0.11417671215491264           0.9631671271329366 0.6299314996729393 1.0000   
         H         H         1.0       0.1388211259365384  0.9141040889485518  0.5873131640940539 1.0000   
         H         H         1.0       0.25085343122708226           0.9624172628871108 0.5991739673572211 1.0000   
         H         H         1.0       0.2244482607071163  0.012596145378022117         0.6466424358636295 1.0000   
         C         C         1.0       0.24252319629470098           0.955441344382246  0.5184086733820206 1.0000   
         C         C         1.0       0.24858726614006113           0.9204919657231682 0.5389271180660318 1.0000   
         C         C         1.0       0.2834619211483436  0.9013187210858148  0.5341398150586638 1.0000   
         C         C         1.0       0.31280713972471924           0.9168229166811435 0.5119676999649195 1.0000   
         C         C         1.0       0.30456489621356925           0.9477288818634972 0.489058330546367  1.0000   
         C         C         1.0       0.2707772222860297  0.9674151102792097  0.49304789854280834          1.0000   
         C         C         1.0       0.21645132635318193           0.90280229809561   0.5659601596790105 1.0000   
         C         C         1.0       0.19494468043951926           0.8772544461699355 0.5317174372006744 1.0000   
         C         C         1.0       0.20780681653139393           0.8393667150401721 0.5215976317568485 1.0000   
         C         C         1.0       0.19652925028584153           0.8211934059604515 0.4893248801249652 1.0000   
         C         C         1.0       0.16596569957402116           0.8372199998989379 0.46941347875010186          1.0000   
         C         C         1.0       0.14824943962104167           0.8699028550826791 0.48091252763637626          1.0000   
         C         C         1.0       0.16440241643546938           0.8919817251648101 0.509972736874457  1.0000   
         C         C         1.0       0.2639265468836971  0.8800250465533485  0.6218533123739559 1.0000   
         C         C         1.0       0.27190079452267063           0.8610985372639555 0.6557958880226065 1.0000   
         C         C         1.0       0.24518509498895444           0.8342166799470376 0.6694482068241255 1.0000   
         C         C         1.0       0.21035207157478397           0.8304534295301313 0.6496337935776423 1.0000   
         C         C         1.0       0.20253579470766236           0.8490293923638589 0.615181075548491  1.0000   
         C         C         1.0       0.22801993051930708           0.8755854613609805 0.6011315903034581 1.0000   
         C         C         1.0       0.2499286016706113  0.8131175486858355  0.7116391342640588 1.0000   
         C         C         1.0       0.17105895633335808           0.7172579464839958 0.7301707338044464 1.0000   
         C         C         1.0       0.19609963610036066           0.7165820454119449 0.699098604035058  1.0000   
         C         C         1.0       0.22121852202026626           0.7468153898165204 0.6928030175384717 1.0000   
         C         C         1.0       0.22456053764869618           0.7761416050877816 0.7211040403951475 1.0000   
         C         C         1.0       0.2019003848143413  0.7760180934329516  0.7541916156726237 1.0000   
         C         C         1.0       0.17487574157488572           0.7477783467154615 0.7576391979820628 1.0000   
         C         C         1.0       0.2438167121740494  0.8501525341401285  0.738361710651024  1.0000   
         C         C         1.0       0.20678821952147183           0.8640180380245386 0.7449134289955318 1.0000   
         C         C         1.0       0.1994372108826386  0.8882688869781777  0.7759241296519833 1.0000   
         C         C         1.0       0.22855509823064904           0.9016851597967916 0.7991277525111984 1.0000   
         C         C         1.0       0.2654303756390606  0.8938471714638073  0.7876763188537631 1.0000   
         C         C         1.0       0.2742620737012746  0.8667964633501892  0.7583912936008934 1.0000   
         C         C         1.0       0.3019026423156127  0.7796899171676464  0.7545833273630254 1.0000   
         C         C         1.0       0.3373496408047854  0.7641438467402804  0.7623433109360245 1.0000   
         C         C         1.0       0.36492166723002195           0.7609545542551706 0.7341091342541975 1.0000   
         C         C         1.0       0.3567058346202322  0.7741507882072535  0.696861754868235  1.0000   
         C         C         1.0       0.3197310576423843  0.7876142647066096  0.6887930601072363 1.0000   
         C         C         1.0       0.2919910404257736  0.7923033659675993  0.7172238916841422 1.0000   
         H         H         1.0       0.21650180325355595           0.9722680975095159 0.5245403619574818 1.0000   
         H         H         1.0       0.28825119211154865           0.8727406924690051 0.5452716141956387 1.0000   
         H         H         1.0       0.3363109401929255  0.8964759323491133  0.506347523090102  1.0000   
         H         H         1.0       0.2624968318693506  0.989198267315187   0.47443665232351073          1.0000   
         H         H         1.0       0.23040072086985947           0.8269244571854791 0.537295092655503  1.0000   
         H         H         1.0       0.20753564597336246           0.7909949294775144 0.48259169703166394          1.0000   
         H         H         1.0       0.12091112117809089           0.8751131360583596 0.4691634219818668 1.0000   
         H         H         1.0       0.14968188469885663           0.9166014065552088 0.5220004482065993 1.0000   
         H         H         1.0       0.2855076380587481  0.8998530927004912  0.6113369831578817 1.0000   
         H         H         1.0       0.29907080956425103           0.8647060460309828 0.6702608838834511 1.0000   
         H         H         1.0       0.18842850460325858           0.8150550885110702 0.6626962558231995 1.0000   
         H         H         1.0       0.17389160462654626           0.8489779496313423 0.6031175883222885 1.0000   
         H         H         1.0       0.19363528800186836           0.6914896399858345 0.6834527205270803 1.0000   
         H         H         1.0       0.24272102292544803           0.7435682312024867 0.6680001814559255 1.0000   
         H         H         1.0       0.20710692897510757           0.7960317011242093 0.7791597628656578 1.0000   
         H         H         1.0       0.1566112620261535  0.7471434157400119  0.7835665348739179 1.0000   
         H         H         1.0       0.18441005404814367           0.8479160868538334 0.730105474232781  1.0000   
         H         H         1.0       0.17021784448594746           0.8955769634292804 0.7828734875946806 1.0000   
         H         H         1.0       0.2904648993959092  0.9023035421354231  0.8051237297928331 1.0000   
         H         H         1.0       0.3052842205294132  0.8603567635439385  0.7522193005503288 1.0000   
         H         H         1.0       0.2838421192043744  0.7899076975673062  0.779935451656559  1.0000   
         H         H         1.0       0.34478212686021587           0.7557554752175301 0.7915410853672167 1.0000   
         H         H         1.0       0.37690288565888025           0.7660832781877336 0.675567110765588  1.0000   
         H         H         1.0       0.310293589293449   0.7907981596094665  0.6605032002015921 1.0000   
         C         C         1.0       0.49694132821762255           0.1901564068479539 0.8064864228514408 1.0000   
         C         C         1.0       0.4794168056573049  0.18230464675134941           0.8401259598464987 1.0000   
         C         C         1.0       0.4394739774519362  0.1886689681483947  0.8420612986414244 1.0000   
         C         C         1.0       0.4189514162751271  0.20121351239339358           0.8091336050288775 1.0000   
         C         C         1.0       0.43830672858181324           0.20716370084602387          0.774271810685004  1.0000   
         C         C         1.0       0.47717288760895626           0.20167888673063528          0.7728681622239041 1.0000   
         H         H         1.0       0.4958610202351933  0.1705190636195278  0.8636930070250638 1.0000   
         H         H         1.0       0.4268930266607632  0.18392242088784103           0.8693554673710016 1.0000   
         H         H         1.0       0.4241511043679701  0.21253139224214598           0.7464667672585984 1.0000   
         H         H         1.0       0.490476052821333   0.2063107290330323  0.7455500099844538 1.0000   
         C         C         1.0       0.3668837737131329  0.2645417984076672  0.7797206321964123 1.0000   
         C         C         1.0       0.353419949755514   0.2271709706106277  0.7834369652348658 1.0000   
         C         C         1.0       0.3196270934705552  0.21312987343968923           0.7655476015774946 1.0000   
         C         C         1.0       0.2985226323040477  0.23632104260033304           0.7433891609871691 1.0000   
         C         C         1.0       0.31034604783411684           0.2733602629512448 0.7397290377264479 1.0000   
         C         C         1.0       0.3444099689066757  0.2882457263304662  0.7561109237651789 1.0000   
         C         C         1.0       0.3740559201937242  0.20202076106829728           0.8154431735658121 1.0000   
         C         C         1.0       0.36289650236569143           0.22545191889341107          0.8549272577371636 1.0000   
         C         C         1.0       0.32342983291173366           0.22154720690510538          0.8668125622950488 1.0000   
         C         C         1.0       0.3103342849963442  0.23937960466926048           0.8999386092470538 1.0000   
         C         C         1.0       0.33431542422252003           0.26236720257057466          0.9213873829480901 1.0000   
         C         C         1.0       0.37097002049888894           0.2700414759893357 0.9093580732285619 1.0000   
         C         C         1.0       0.38561960361450953           0.24978597067687333          0.8775760429415941 1.0000   
         C         C         1.0       0.3610643210842355  0.133679009655975   0.7814621673014794 1.0000   
         C         C         1.0       0.36786909916753874           0.09482892899569961          0.7831011017763791 1.0000   
         C         C         1.0       0.3721156557985437  0.07629487749141162           0.8185812449755804 1.0000   
         C         C         1.0       0.3666960151227872  0.0985323767801678  0.851323319286568  1.0000   
         C         C         1.0       0.3603248304493003  0.13789658821094042           0.8499844621646829 1.0000   
         C         C         1.0       0.363624934440684   0.15702234330948436           0.8144526738299133 1.0000   
         C         C         1.0       0.38352766130035093           0.03119747691908259          0.8223653060205736 1.0000   
         C         C         1.0       0.4622535613233234  0.024855324886212227         0.9204637586852441 1.0000   
         C         C         1.0       0.468107867234664   0.05282480030831738           0.8922302957707586 1.0000   
         C         C         1.0       0.44288652177442867           0.05469662517750895          0.8607517321031946 1.0000   
         C         C         1.0       0.4162514363219699  0.02666870246225428           0.85587602128319   1.0000   
         C         C         1.0       0.4154180468168984  0.994051558863469   0.8802969332031619 1.0000   
         C         C         1.0       0.4367831349463737  0.9954537764162461  0.9148296864712077 1.0000   
         C         C         1.0       0.4064070780822279  0.0094222442088161  0.7893181399316053 1.0000   
         C         C         1.0       0.43258829272019467           0.03021719174041282          0.7671056073217226 1.0000   
         C         C         1.0       0.4603490469236767  0.013315064724160885         0.7437700927501609 1.0000   
         C         C         1.0       0.46149153080911    0.973509146505425   0.7424944938817726 1.0000   
         C         C         1.0       0.4304202555557527  0.9539678979034744  0.7575169640074237 1.0000   
         C         C         1.0       0.4036953107372381  0.9708348902676609  0.781470759359847  1.0000   
         C         C         1.0       0.3228964234174271  0.0070194162190477805        0.8644512970982224 1.0000   
         C         C         1.0       0.285241182940659   0.9941096764595475  0.8684461688709715 1.0000   
         C         C         1.0       0.26568388821066274           0.9824263942943107 0.8343014270551694 1.0000   
         C         C         1.0       0.2831727106479083  0.9871446021039518  0.7984505229557566 1.0000   
         C         C         1.0       0.31834112733963954           0.004802395241653157         0.7961987125253817 1.0000   
         C         C         1.0       0.34044848528634264           0.01355824729755195          0.8287645304622742 1.0000   
         H         H         1.0       0.3883753601495813  0.27479880502579906           0.8000190873993821 1.0000   
         H         H         1.0       0.30237778313376873           0.1862601063975693 0.771255433422059  1.0000   
         H         H         1.0       0.27401530571159277           0.22541184600661657          0.7296918193450614 1.0000   
         H         H         1.0       0.3519085895777234  0.3189514076721437  0.7564334266070267 1.0000   
         H         H         1.0       0.30384959331072003           0.2059018735264315 0.849115205902663  1.0000   
         H         H         1.0       0.28138221421757115           0.23314772181906113          0.9063397725771144 1.0000   
         H         H         1.0       0.39195924845831837           0.287229760400831  0.9265410889364856 1.0000   
         H         H         1.0       0.4132083240098627  0.2555025175557875  0.8664669792010444 1.0000   
         H         H         1.0       0.3662973338171479  0.14450458784106499           0.7542242268327622 1.0000   
         H         H         1.0       0.37224615791505283           0.07957311389538257          0.754882571596459  1.0000   
         H         H         1.0       0.36934086830874063           0.08596597986892518          0.8803647666957187 1.0000   
         H         H         1.0       0.3538430062828789  0.15416764368017333           0.8771148517291565 1.0000   
         H         H         1.0       0.4868882907233286  0.07872547705588673           0.897340445181253  1.0000   
         H         H         1.0       0.44489992028493297           0.08013978917334597          0.8424059468348281 1.0000   
         H         H         1.0       0.3950940967918373  0.9697806515962016  0.8747801799368643 1.0000   
         H         H         1.0       0.43420925464748716           0.9713046690021594 0.9360099426411542 1.0000   
         H         H         1.0       0.4371496997870281  0.06156814430976221           0.7698541353412671 1.0000   
         H         H         1.0       0.48475956603464787           0.030955751223153083         0.7340863305909188 1.0000   
         H         H         1.0       0.42923149940971045           0.924511569248398  0.7568631516727469 1.0000   
         H         H         1.0       0.3842864557765936  0.9541533591900402  0.8006288655001226 1.0000   
         H         H         1.0       0.340366172519826   0.012293764111696692         0.8911610283688121 1.0000   
         H         H         1.0       0.2697300616071666  0.9956157750852562  0.898117559077661  1.0000   
         H         H         1.0       0.2727528095493878  0.980987685873947   0.7694940686407636 1.0000   
         H         H         1.0       0.33224466848792505           0.011717000538102873         0.7685636198410081 1.0000   
         C         C         1.0       0.6399870768436325  0.7956335421399933  0.7880604318166113 1.0000   
         C         C         1.0       0.6374916557961198  0.758242219761772   0.8007443501791762 1.0000   
         C         C         1.0       0.6489499222106728  0.748684489974522   0.837724681432039  1.0000   
         C         C         1.0       0.6685658889087206  0.7771459729027438  0.8590139881664899 1.0000   
         C         C         1.0       0.6792491653936727  0.8120283216683923  0.8423962613956686 1.0000   
         C         C         1.0       0.6631088526975463  0.8209640430133809  0.807187941077107  1.0000   
         H         H         1.0       0.6244765841925564  0.7373692215071275  0.7816213998548203 1.0000   
         H         H         1.0       0.640946178261673   0.7214290570780943  0.8499586908226617 1.0000   
         H         H         1.0       0.6923237187378808  0.8332925136965255  0.8599164292747227 1.0000   
         H         H         1.0       0.6660534083316676  0.8515755185203873  0.7974845930008992 1.0000   
         C         C         1.0       0.742345505885378   0.794276606939341   0.9137490576451945 1.0000   
         C         C         1.0       0.7034613239938006  0.7985968660430935  0.926050909932218  1.0000   
         C         C         1.0       0.6967479022414353  0.8202562674159459  0.9589571220740447 1.0000   
         C         C         1.0       0.7259873937245659  0.8363549591547689  0.9796323075134876 1.0000   
         C         C         1.0       0.7637477958904298  0.8325486707078884  0.9681121317275475 1.0000   
         C         C         1.0       0.7713831405658171  0.8113840136395009  0.9345851912434329 1.0000   
         C         C         1.0       0.6675546723659719  0.7759321651236971  0.9049101582952389 1.0000   
         C         C         1.0       0.6742485666251896  0.7375264863442782  0.9248141952640423 1.0000   
         C         C         1.0       0.6586808087209638  0.7305197841192101  0.9614616691250351 1.0000   
         C         C         1.0       0.6680869713159739  0.696541870750153   0.9799363539632963 1.0000   
         C         C         1.0       0.6959057471615446  0.6711222026039009  0.9647060722440368 1.0000   
         C         C         1.0       0.7086055196353839  0.6768336724202466  0.9274872512100651 1.0000   
         C         C         1.0       0.6957749407819345  0.7089328165476348  0.9062858120977579 1.0000   
         C         C         1.0       0.6178726084128665  0.8325516695759808  0.9073855959762457 1.0000   
         C         C         1.0       0.583280364548942   0.8469345058242805  0.8960464518486583 1.0000   
         C         C         1.0       0.5530666096873639  0.8217835297199535  0.8880708514707076 1.0000   
         C         C         1.0       0.5572538255950735  0.7831185648011846  0.8982821742053009 1.0000   
         C         C         1.0       0.5940937086150203  0.7685145760560815  0.9066546379066569 1.0000   
         C         C         1.0       0.6251176953959872  0.7928843753525776  0.9108238216498485 1.0000   
         C         C         1.0       0.5130134227256523  0.8361724622430693  0.8732126025373522 1.0000   
         C         C         1.0       0.48400122449967425           0.8571107729230535 0.9957395618942292 1.0000   
         C         C         1.0       0.49542438604864675           0.8881179697444043 0.9729927784104507 1.0000   
         C         C         1.0       0.500733917759862   0.8835586992751707  0.9337855474041215 1.0000   
         C         C         1.0       0.495057246837595   0.8482678416302611  0.9149519627534939 1.0000   
         C         C         1.0       0.48054037312305653           0.8191343189342359 0.9391986973596614 1.0000   
         C         C         1.0       0.4762867858357515  0.822488408342079   0.9789943145685762 1.0000   
         C         C         1.0       0.4866314557870054  0.8060735073997082  0.8488747885968106 1.0000   
         C         C         1.0       0.5026969723483339  0.7839489181041784  0.82083608490421   1.0000   
         C         C         1.0       0.4815330321576505  0.7591183917598338  0.7984944914911205 1.0000   
         C         C         1.0       0.441363480801669   0.7565068115168901  0.8043105455968289 1.0000   
         C         C         1.0       0.4253920706418749  0.7789517722778291  0.8312133807944384 1.0000   
         C         C         1.0       0.4465458052534604  0.8057935587969621  0.8520446582553601 1.0000   
         C         C         1.0       0.4978269374846689  0.9035416177129896  0.8444186753763987 1.0000   
         C         C         1.0       0.5033802477586412  0.931573838259645   0.8170939733277489 1.0000   
         C         C         1.0       0.5273344490290215  0.9254361550919789  0.78434272105794   1.0000   
         C         C         1.0       0.5494685992821189  0.892445564290609   0.783637498085121  1.0000   
         C         C         1.0       0.5433968853385698  0.8632296826251009  0.8113949092342208 1.0000   
         C         C         1.0       0.5167069447080228  0.8687748408080953  0.8426598669641331 1.0000   
         H         H         1.0       0.7495682399202298  0.7779563001919785  0.890946029777628  1.0000   
         H         H         1.0       0.6688361201297133  0.8246025777574904  0.9708646367356727 1.0000   
         H         H         1.0       0.7206294220743957  0.8548707019129196  0.005892877524919848         1.0000   
         H         H         1.0       0.8010065260946786  0.8083457760365075  0.9247004685578741 1.0000   
         H         H         1.0       0.6401428272048172  0.7531288963828651  0.9735247734375179 1.0000   
         H         H         1.0       0.6563856021568314  0.6914446207421018  0.008734941416137065         1.0000   
         H         H         1.0       0.7316063227537035  0.6588932756990987  0.9159824550369808 1.0000   
         H         H         1.0       0.7088516561248911  0.7120046602858698  0.8776364287770411 1.0000   
         H         H         1.0       0.6391943479843607  0.8530140374685661  0.9085194753400109 1.0000   
         H         H         1.0       0.5783532979054692  0.8766489252845937  0.8925896595538174 1.0000   
         H         H         1.0       0.5332855665094958  0.7629607686792282  0.8993799370628099 1.0000   
         H         H         1.0       0.5968683689037781  0.7384654780171677  0.9156178666022444 1.0000   
         H         H         1.0       0.5053164906666854  0.9152536343059374  0.9814559527185495 1.0000   
         H         H         1.0       0.5124007676203002  0.9074469563392787  0.917593407177764  1.0000   
         H         H         1.0       0.48034975273818054           0.7904942245362012 0.9258138027802703 1.0000   
         H         H         1.0       0.47686308802729005           0.7969060103568958 0.9982681324482279 1.0000   
         H         H         1.0       0.5338965694952875  0.7793955852947061  0.816377940368577  1.0000   
         H         H         1.0       0.494568083668212   0.7435774807449078  0.7742933067770672 1.0000   
         H         H         1.0       0.39498454346130524           0.7779634196657677 0.8383869303638218 1.0000   
         H         H         1.0       0.4320390986833928  0.823509329248706   0.8747519898484037 1.0000   
         H         H         1.0       0.477836318877119   0.9092744572295842  0.8675897641537685 1.0000   
         H         H         1.0       0.48599146576790236           0.9568195216344088 0.8212370306297363 1.0000   
         H         H         1.0       0.5704932785971164  0.8857661641005014  0.7614645418468851 1.0000   
         H         H         1.0       0.5594725096380264  0.8357906373803948  0.8091123133962204 1.0000   
         C         C         1.0       0.8961398228619903  0.6901675999867047  0.32706965691488515          1.0000   
         C         C         1.0       0.906930858883072   0.6893889763545706  0.2876593003222959 1.0000   
         C         C         1.0       0.894141051586453   0.6591172561930095  0.2631131916988292 1.0000   
         C         C         1.0       0.8674635324031856  0.6330588294620237  0.27412673445066266          1.0000   
         C         C         1.0       0.8569487391797345  0.633668911923305   0.3138128421105259 1.0000   
         C         C         1.0       0.870838365058146   0.6611446059026148  0.34061823678474556          1.0000   
         H         H         1.0       0.926987215179836   0.7139230401964143  0.27676262918498806          1.0000   
         H         H         1.0       0.9052475537874306  0.6610464736303079  0.2333441175617393 1.0000   
         H         H         1.0       0.8364621531248276  0.6113917593864182  0.3251200940051198 1.0000   
         H         H         1.0       0.8568790154275424  0.6616133010238511  0.36899244638522083          1.0000   
         C         C         1.0       0.8481063866704861  0.5442396763261861  0.28325665571952474          1.0000   
         C         C         1.0       0.8272060450880871  0.5641382276535183  0.25525003158445125          1.0000   
         C         C         1.0       0.7977274506598337  0.5439744738806611  0.23712094316035867          1.0000   
         C         C         1.0       0.7904585993997758  0.5053801112162118  0.24365682075914508          1.0000   
         C         C         1.0       0.8107257081800155  0.48624077451594083           0.27187189753135843          1.0000   
         C         C         1.0       0.837767344043126   0.5071204909004189  0.2935997493574709 1.0000   
         C         C         1.0       0.8449400973961454  0.6062282904533945  0.2416093511058462 1.0000   
         C         C         1.0       0.8713396953762067  0.5919798276442351  0.20843960345257717          1.0000   
         C         C         1.0       0.853216776532865   0.5803286536438024  0.17393391787173176          1.0000   
         C         C         1.0       0.8677918725144462  0.5486947000326075  0.1536293180856912 1.0000   
         C         C         1.0       0.8979866198040056  0.5276230767831795  0.16909649840640578          1.0000   
         C         C         1.0       0.919525238263427   0.5431142803587796  0.19812319227862302          1.0000   
         C         C         1.0       0.9074812252139612  0.577013195448553   0.21646976819386515          1.0000   
         C         C         1.0       0.775869653142036   0.6315069819611694  0.24199406080357294          1.0000   
         C         C         1.0       0.7530857253285269  0.6628293472976585  0.24708570782254963          1.0000   
         C         C         1.0       0.768445544492678   0.7000079216264078  0.24264021885157935          1.0000   
         C         C         1.0       0.8008887731996178  0.7045492914585638  0.2177770091264689 1.0000   
         C         C         1.0       0.821793096043667   0.6715785974811416  0.21093384652389569          1.0000   
         C         C         1.0       0.8132344352674375  0.6354504056974581  0.23034541878005285          1.0000   
         C         C         1.0       0.7547040667114859  0.7361864126511392  0.26886465492890876          1.0000   
         C         C         1.0       0.6710744286371018  0.8016206939633842  0.200385399908851  1.0000   
         C         C         1.0       0.6583516437386138  0.774540188788899   0.22775517191911118          1.0000   
         C         C         1.0       0.6832903470687284  0.7479881714612986  0.2430874338215126 1.0000   
         C         C         1.0       0.7220012485080286  0.7530327762958293  0.23806556556145958          1.0000   
         C         C         1.0       0.7354752701810803  0.7797868269201674  0.20995697773919147          1.0000   
         C         C         1.0       0.7082459343992453  0.8005169731986709  0.1893155760383839 1.0000   
         C         C         1.0       0.7852614897820354  0.76868282326155    0.2820642655569459 1.0000   
         C         C         1.0       0.8252738870918422  0.7630827984634624  0.2843906861504935 1.0000   
         C         C         1.0       0.8503694261203314  0.7926495611624774  0.293169382336921  1.0000   
         C         C         1.0       0.8384034034082104  0.8282324598731783  0.3028771457232416 1.0000   
         C         C         1.0       0.7976428476378298  0.8328417049846049  0.3050348114033786 1.0000   
         C         C         1.0       0.773145965390454   0.8049013075456323  0.29177049593083587          1.0000   
         C         C         1.0       0.7073039679937302  0.7299235644541461  0.3304479497112327 1.0000   
         C         C         1.0       0.6949729680825328  0.7096832788216131  0.3640260052516259 1.0000   
         C         C         1.0       0.7205409991708996  0.6826450003594112  0.3786466676683452 1.0000   
         C         C         1.0       0.7563279828308492  0.678170652547907   0.36242651700584505          1.0000   
         C         C         1.0       0.7671821657882306  0.6984539849408575  0.33029849802015776          1.0000   
         C         C         1.0       0.7424173478316296  0.7217045276723013  0.3121229313112536 1.0000   
         H         H         1.0       0.8713749608621929  0.5592859401811745  0.2966564163522514 1.0000   
         H         H         1.0       0.7789484072912184  0.5562064124923555  0.2164684811111085 1.0000   
         H         H         1.0       0.7710454991410914  0.4903770524816219  0.22577461636682503          1.0000   
         H         H         1.0       0.8557443404923389  0.49393139330834    0.31609471318923094          1.0000   
         H         H         1.0       0.8243999812437145  0.5891658184820918  0.16509385993970468          1.0000   
         H         H         1.0       0.8522076870293722  0.5341966510421043  0.13179118939428602          1.0000   
         H         H         1.0       0.9464750942361277  0.5300779557973003  0.20832215968773174          1.0000   
         H         H         1.0       0.9263231337746606  0.5823944195480426  0.2401820385272951 1.0000   
         H         H         1.0       0.7611696013675048  0.6073177948096115  0.254980628061619  1.0000   
         H         H         1.0       0.7262134965230398  0.6583933155414341  0.2622149700593764 1.0000   
         H         H         1.0       0.8103119205828461  0.7333242848392061  0.2093315691071163 1.0000   
         H         H         1.0       0.8502126788835946  0.6760589855790498  0.20229846043392716          1.0000   
         H         H         1.0       0.6285173802245535  0.775394233998919   0.24082602177826448          1.0000   
         H         H         1.0       0.6707958604783406  0.7331960312710478  0.2659264104609196 1.0000   
         H         H         1.0       0.764490942647748   0.7835955582228682  0.20126156677898055          1.0000   
         H         H         1.0       0.7203388228758966  0.821544567364563   0.16976365647460037          1.0000   
         H         H         1.0       0.837493418622506   0.733771312642302   0.2784292225345259 1.0000   
         H         H         1.0       0.8811961809133642  0.7877065946150987  0.29233734109081955          1.0000   
         H         H         1.0       0.7863970679477218  0.8603127909489257  0.3146564991999895 1.0000   
         H         H         1.0       0.7431466449105295  0.8124399444260081  0.28673706221527084          1.0000   
         H         H         1.0       0.6905734853888243  0.75263096420237    0.31956137408204877          1.0000   
         H         H         1.0       0.6689423914760505  0.71846656763709    0.3787121386889822 1.0000   
         H         H         1.0       0.7747601134660007  0.6575392461896019  0.37432699142762066          1.0000   
         H         H         1.0       0.7932165930682018  0.6917862954248073  0.3151278849014354 1.0000   
         C         C         1.0       0.871498662782957   0.6758111197455376  0.7054082404982145 1.0000   
         C         C         1.0       0.8327627336929706  0.6801466053835861  0.6980995620880509 1.0000   
         C         C         1.0       0.8175817167002525  0.716998345328355   0.6957106559966483 1.0000   
         C         C         1.0       0.839396485755981   0.7506543049838623  0.704505942730867  1.0000   
         C         C         1.0       0.8792536903744873  0.7455871167258032  0.7120687500575522 1.0000   
         C         C         1.0       0.8940838568050409  0.7086594807468921  0.7112490109739266 1.0000   
         H         H         1.0       0.8172208022940984  0.6543801741080812  0.6890749135019739 1.0000   
         H         H         1.0       0.7896972700646737  0.7223307844162656  0.6800472502486793 1.0000   
         H         H         1.0       0.8982573475791983  0.7692026097546718  0.7169959454743589 1.0000   
         H         H         1.0       0.9241398340081154  0.7049803086984621  0.7178692345320431 1.0000   
         C         C         1.0       0.8525640501538582  0.8207840931939756  0.7609701765137247 1.0000   
         C         C         1.0       0.8411927905232844  0.8250780522287862  0.7224324026841527 1.0000   
         C         C         1.0       0.8463048117932745  0.8616170596884536  0.7063426060810302 1.0000   
         C         C         1.0       0.8678245004440011  0.889390426148937   0.7257901680631188 1.0000   
         C         C         1.0       0.8770224378388706  0.8833812612546569  0.7649366911013112 1.0000   
         C         C         1.0       0.8711164123348845  0.8490335886558958  0.7824836245128576 1.0000   
         C         C         1.0       0.8177988838987892  0.7907790559149905  0.6995924643502035 1.0000   
         C         C         1.0       0.7748328642344989  0.797098245548174   0.7144213195398098 1.0000   
         C         C         1.0       0.7535730914867725  0.8287413906089207  0.7019151573855068 1.0000   
         C         C         1.0       0.7133398832320524  0.8304059857086631  0.7018220460762356 1.0000   
         C         C         1.0       0.6931230321666181  0.7977061182454482  0.7152535270615343 1.0000   
         C         C         1.0       0.7150439972382884  0.7676751410584391  0.7311539521510153 1.0000   
         C         C         1.0       0.7547530518991739  0.7687076857352684  0.7334279082591759 1.0000   
         C         C         1.0       0.8539811572259692  0.8063956355860099  0.6344951715724749 1.0000   
         C         C         1.0       0.8581832572530178  0.8033305642962043  0.5947835274790374 1.0000   
         C         C         1.0       0.8278487132858274  0.7913969059259566  0.570923880320503  1.0000   
         C         C         1.0       0.7921612081238778  0.7825686929236332  0.5907254909470615 1.0000   
         C         C         1.0       0.7902319891789531  0.7828173235822671  0.6290297201237073 1.0000   
         C         C         1.0       0.8198551672172708  0.7954805995232355  0.6523208548957861 1.0000   
         C         C         1.0       0.8288534713335147  0.7905395057576768  0.5239875129239643 1.0000   
         C         C         1.0       0.7889786399591731  0.9096172193471093  0.509280661002112  1.0000   
         C         C         1.0       0.8283630676303142  0.9023398321875138  0.5124194492406011 1.0000   
         C         C         1.0       0.8414158416553729  0.8649052594258296  0.517177978025373  1.0000   
         C         C         1.0       0.8132807957229937  0.8332465102110044  0.5182889116109728 1.0000   
         C         C         1.0       0.7746762171689962  0.8413727847378564  0.5153124354038174 1.0000   
         C         C         1.0       0.7621948173277248  0.8788694750417787  0.5116161760673221 1.0000   
         C         C         1.0       0.8019633982346192  0.7593213679775911  0.4998526955367677 1.0000   
         C         C         1.0       0.7931797924277221  0.7233337374150206  0.5169113466469576 1.0000   
         C         C         1.0       0.7639327686637843  0.701056440758935   0.5009518339911462 1.0000   
         C         C         1.0       0.7485019557539196  0.7123858207483215  0.46524581675950544          1.0000   
         C         C         1.0       0.7608481176796043  0.7442013059190514  0.44583394149740446          1.0000   
         C         C         1.0       0.7873558708369907  0.7671470794364781  0.46470321774566864          1.0000   
         C         C         1.0       0.8863749810386277  0.7937036767787702  0.4720079633589254 1.0000   
         C         C         1.0       0.9222895437189222  0.7797409678066419  0.45895543060829386          1.0000   
         C         C         1.0       0.9420613164570228  0.751403418151782   0.47942303501286354          1.0000   
         C         C         1.0       0.9233703282062199  0.7342080457842889  0.5101010064222411 1.0000   
         C         C         1.0       0.8885027439578682  0.7471395017086357  0.5220875598509195 1.0000   
         C         C         1.0       0.8700480798515101  0.7776515197243565  0.5056999975555535 1.0000   
         H         H         1.0       0.8460103126948929  0.7936539224075801  0.7756787717270861 1.0000   
         H         H         1.0       0.8403174158746194  0.8673623079492211  0.6752051438512817 1.0000   
         H         H         1.0       0.8744481425993494  0.9159588365778619  0.7116099130521298 1.0000   
         H         H         1.0       0.8813520267447591  0.848023628340054   0.8115076262433549 1.0000   
         H         H         1.0       0.7677434555018026  0.8506055584386717  0.6861918319351678 1.0000   
         H         H         1.0       0.6974031618444957  0.8542542158832537  0.6903069408524525 1.0000   
         H         H         1.0       0.7011055176012226  0.74021351754956    0.738968023665145  1.0000   
         H         H         1.0       0.7685861306959173  0.7436721408776423  0.7445951340712428 1.0000   
         H         H         1.0       0.8784702281288009  0.8122189858900889  0.6510112803570537 1.0000   
         H         H         1.0       0.8862910723934867  0.8089719245253075  0.5835054267812622 1.0000   
         H         H         1.0       0.7668235812468549  0.7738164726316198  0.5728573325538401 1.0000   
         H         H         1.0       0.7637255031992407  0.7725852400883756  0.6409600918289781 1.0000   
         H         H         1.0       0.847898825297097   0.9257401817654773  0.5113931374140935 1.0000   
         H         H         1.0       0.8715305789964276  0.8567727399057457  0.5190439636522679 1.0000   
         H         H         1.0       0.7521245055915433  0.8211232781574843  0.5179026471076184 1.0000   
         H         H         1.0       0.7324116831453004  0.886859721761442   0.5068593531198469 1.0000   
         H         H         1.0       0.8015601061846824  0.7170432681292856  0.5458757334700739 1.0000   
         H         H         1.0       0.7508536822652506  0.6767371017065302  0.518025047474754  1.0000   
         H         H         1.0       0.7497536876547743  0.7528680550660974  0.41609837899959223          1.0000   
         H         H         1.0       0.800242729192007   0.792790731796372   0.4502214282210683 1.0000   
         H         H         1.0       0.8706068646323318  0.8152811947282528  0.4581807717661443 1.0000   
         H         H         1.0       0.9373050642001652  0.7922226732353727  0.4359619401057308 1.0000   
         H         H         1.0       0.9386767547520477  0.7096445110113552  0.5224702210416143 1.0000   
         H         H         1.0       0.8748166619356156  0.7335414150382034  0.5467985988393923 1.0000   
         C         C         1.0       0.15540332326172995           0.8567478324861398 0.3749672975481198 1.0000   
         C         C         1.0       0.17957142064704465           0.8890091385171058 0.38132045819306476          1.0000   
         C         C         1.0       0.16592451279803952           0.923126270904338  0.3665316205711104 1.0000   
         C         C         1.0       0.1298883863746953  0.9281786393397569  0.3478604804851428 1.0000   
         C         C         1.0       0.10750387287303043           0.8958827763527899 0.34219185608593555          1.0000   
         C         C         1.0       0.11974483845971219           0.8619875432239955 0.3569422362790552 1.0000   
         H         H         1.0       0.20681210607736317           0.8846592791657384 0.397608503493973  1.0000   
         H         H         1.0       0.18205814963268724           0.9473206121889808 0.37692424575858263          1.0000   
         H         H         1.0       0.07978265904627357           0.895591545326772  0.32643508873121213          1.0000   
         H         H         1.0       0.10034842175251701           0.8387663195427858 0.35651492221316394          1.0000   
         C         C         1.0       0.09447150469911891           0.9541399981731284 0.273867640405015  1.0000   
         C         C         1.0       0.08760684594730006           0.9771831110126593 0.3056335792770684 1.0000   
         C         C         1.0       0.06731162531032342           0.01114053468595988          0.30049736075337   1.0000   
         C         C         1.0       0.055295423662297345          0.023339211067077148         0.2639139104565752 1.0000   
         C         C         1.0       0.06341875239281314           0.9998779935796559 0.2316622685791297 1.0000   
         C         C         1.0       0.08341872076698253           0.9659086198365479 0.23759202332568752          1.0000   
         C         C         1.0       0.10883781658749503           0.9698109142617863 0.34612224754282783          1.0000   
         C         C         1.0       0.13656080620625002           0.0066599334712540426        0.35083991517946633          1.0000   
         C         C         1.0       0.1323047081319002  0.03848816213341766           0.376582059190811  1.0000   
         C         C         1.0       0.15637175692548658           0.069271955437195  0.3761412526346069 1.0000   
         C         C         1.0       0.1839753478759884  0.06982701272637981           0.347120644449123  1.0000   
         C         C         1.0       0.18997175814367948           0.03993429112256153          0.3213824114357344 1.0000   
         C         C         1.0       0.1651195533807242  0.00886164112455834           0.3231093904352451 1.0000   
         C         C         1.0       0.04187891971292901           0.9762295048846303 0.38252599329290715          1.0000   
         C         C         1.0       0.016620638799693666          0.9634225258848583 0.4091814284810194 1.0000   
         C         C         1.0       0.027325366891308933          0.9394890762058724 0.43853954557466923          1.0000   
         C         C         1.0       0.06599847388445701           0.9396741407054646 0.4449886974930889 1.0000   
         C         C         1.0       0.09217004801342732           0.9519737591840882 0.41770284590664714          1.0000   
         C         C         1.0       0.0798815238737276  0.965760149460777   0.3833547757299201 1.0000   
         C         C         1.0       0.9952398188632892  0.9158191267356062  0.46184976055075794          1.0000   
         C         C         1.0       0.9675080840697006  0.9658955717993717  0.5763387689741515 1.0000   
         C         C         1.0       0.9449354202211075  0.9750493572440279  0.5431744894608997 1.0000   
         C         C         1.0       0.9555783469887017  0.9640517118677259  0.5053467244332491 1.0000   
         C         C         1.0       0.9887429984819656  0.9423301827596857  0.4998999934177503 1.0000   
         C         C         1.0       0.014649614585322102          0.9398192479959631 0.5314890926015646 1.0000   
         C         C         1.0       0.003827361614570979          0.9516318216858743 0.5699993678014492 1.0000   
         C         C         1.0       0.007397086617553894          0.8731739240549228 0.4740896392444281 1.0000   
         C         C         1.0       0.028640303204641393          0.8504525437187561 0.44982532685902255          1.0000   
         C         C         1.0       0.03746972947052396           0.8122186169226323 0.45873702800909916          1.0000   
         C         C         1.0       0.02012099662021405           0.7970434314590963 0.4910309672555827 1.0000   
         C         C         1.0       0.9981847286784655  0.8199541637143416  0.5156178471415517 1.0000   
         C         C         1.0       0.9885178583586735  0.8562953275779908  0.5051607014063155 1.0000   
         C         C         1.0       0.9252616316083113  0.8975368579980059  0.4504242580968216 1.0000   
         C         C         1.0       0.8949835187161974  0.8842338099274478  0.4269579677412536 1.0000   
         C         C         1.0       0.9002716055417141  0.876378505878443   0.3891426252287026 1.0000   
         C         C         1.0       0.936087503462399   0.8814239833134381  0.3719584869200787 1.0000   
         C         C         1.0       0.9641747785716722  0.8970856493384676  0.39493621399904344          1.0000   
         C         C         1.0       0.9604716587789455  0.9049085118376318  0.43393727192198595          1.0000   
         H         H         1.0       0.11236316871078733           0.9289331431614563 0.27583508621305625          1.0000   
         H         H         1.0       0.05894446663720542           0.03097991530548838          0.3251769945078276 1.0000   
         H         H         1.0       0.03740685122552212           0.0478265003565177 0.2617053278393461 1.0000   
         H         H         1.0       0.0907442453145475  0.9474840677989677  0.21326877741027792          1.0000   
         H         H         1.0       0.11007760015748769           0.04225244992348909          0.3962269296844425 1.0000   
         H         H         1.0       0.1489561818570353  0.0934741754057502  0.39471512075982734          1.0000   
         H         H         1.0       0.21532508664681563           0.04161839916883059          0.30171731292328274          1.0000   
         H         H         1.0       0.16881712137460247           0.9840859210231206 0.3043198156757141 1.0000   
         H         H         1.0       0.0289420694278435  0.9860688493147701  0.3556168639107896 1.0000   
         H         H         1.0       0.9857691977268876  0.9687392942178784  0.4049091445484024 1.0000   
         H         H         1.0       0.07827790044507621           0.9247945146222377 0.47065319661386407          1.0000   
         H         H         1.0       0.12391168088077409           0.9476813602548189 0.4228366888156219 1.0000   
         H         H         1.0       0.9192654651072527  0.9912436497852224  0.5455444578722117 1.0000   
         H         H         1.0       0.9359283774936564  0.9718624891597486  0.4835676968968871 1.0000   
         H         H         1.0       0.04131372759503327           0.9229353549447604 0.5270059593390987 1.0000   
         H         H         1.0       0.024830914994818043          0.945575663464321  0.5941602153158577 1.0000   
         H         H         1.0       0.04220810319670676           0.8611511687522632 0.4221775029529309 1.0000   
         H         H         1.0       0.057030174305727765          0.7941156372751876 0.442338514305083  1.0000   
         H         H         1.0       0.9809485298038755  0.8054638134055505  0.5373601854690302 1.0000   
         H         H         1.0       0.9676736782285777  0.8726724667925584  0.5236207315339474 1.0000   
         H         H         1.0       0.9202350048804552  0.900079383029324   0.4808288709452414 1.0000   
         H         H         1.0       0.8681868198426989  0.8791865645598815  0.43998770453088104          1.0000   
         H         H         1.0       0.9425639196237336  0.8749693578727729  0.34011571693151493          1.0000   
         H         H         1.0       0.989566384299993   0.899197234893029   0.3771518404497537 1.0000   
         C         C         1.0       0.6114154682762545  0.25872328396351324           0.07423448029937907          1.0000   
         C         C         1.0       0.6256056426162283  0.23540093191426187           0.04369462896720866          1.0000   
         C         C         1.0       0.6205910946802459  0.24802311395336    0.005079485926527516         1.0000   
         C         C         1.0       0.6037754280159603  0.28158353086250915           0.9943519540417952 1.0000   
         C         C         1.0       0.5954083653782737  0.3059903171361695  0.026828423284184666         1.0000   
         C         C         1.0       0.5968742358961063  0.2950530880175845  0.06572576692134824          1.0000   
         H         H         1.0       0.6360325981882589  0.2065041770939194  0.049827503266465234         1.0000   
         H         H         1.0       0.6344543680539302  0.23026220136713613           0.985983138726117  1.0000   
         H         H         1.0       0.5850105592980366  0.3332107956810981  0.02094893482233351          1.0000   
         H         H         1.0       0.5867566470417709  0.31565647626505455           0.08734623503014194          1.0000   
         C         C         1.0       0.5297429649663777  0.32888246454389836           0.9645117645874183 1.0000   
         C         C         1.0       0.5640162795615149  0.32407568709695744           0.9415631965267087 1.0000   
         C         C         1.0       0.5632465202061406  0.34107057750522496           0.905655146086097  1.0000   
         C         C         1.0       0.5332229582774971  0.36411539374004037           0.8930615760941569 1.0000   
         C         C         1.0       0.5012066634764824  0.3713900194649153  0.9160228260499463 1.0000   
         C         C         1.0       0.49981786117022026           0.3528720461264998 0.9525520140027842 1.0000   
         C         C         1.0       0.5989561534061199  0.2968992909935633  0.9502196123002884 1.0000   
         C         C         1.0       0.5957456154800987  0.26106350290254626           0.9206808481234551 1.0000   
         C         C         1.0       0.6185861012960534  0.25585312228057266           0.8879182049942572 1.0000   
         C         C         1.0       0.6086916817822186  0.22804280026366522           0.8596263746699507 1.0000   
         C         C         1.0       0.578245791742992   0.2040858510854303  0.8651789996028673 1.0000   
         C         C         1.0       0.557651239975038   0.20861393390417052           0.9003322224573174 1.0000   
         C         C         1.0       0.5637339735200747  0.2370780845118956  0.9247248220568877 1.0000   
         C         C         1.0       0.6421668446397009  0.35822450130373257           0.9426657347343966 1.0000   
         C         C         1.0       0.6764502299959427  0.3788865794766237  0.9406672908518346 1.0000   
         C         C         1.0       0.713816735385163   0.3588511563324536  0.9476192870598684 1.0000   
         C         C         1.0       0.7105337372982484  0.31858879005874696           0.9494122799016805 1.0000   
         C         C         1.0       0.6756277168618113  0.29981374201407035           0.9492287497421963 1.0000   
         C         C         1.0       0.6402563635756234  0.3183668674138818  0.9461197662059049 1.0000   
         C         C         1.0       0.7535312864326634  0.38115141550851284           0.9466342043631254 1.0000   
         C         C         1.0       0.7878257416694471  0.34660156344991644           0.8270592110817554 1.0000   
         C         C         1.0       0.7662715948757225  0.37900690328938275           0.8330919916649022 1.0000   
         C         C         1.0       0.755393194466417   0.39280067812683533           0.8698911901112379 1.0000   
         C         C         1.0       0.7659444085726572  0.37108149604485885           0.9027678895362621 1.0000   
         C         C         1.0       0.7879180465612065  0.3374569189524603  0.8965216547735191 1.0000   
         C         C         1.0       0.7965804901795628  0.3242835298134676  0.8583494691574194 1.0000   
         C         C         1.0       0.787344135481019   0.37006105490802554           0.9761159402547687 1.0000   
         C         C         1.0       0.781650108166013   0.3466335809486929  0.008979435688437398         1.0000   
         C         C         1.0       0.8082215634108879  0.3472743271594803  0.03856649563428549          1.0000   
         C         C         1.0       0.8443938183520353  0.36510262973575025           0.0333894253578324 1.0000   
         C         C         1.0       0.8503317005912275  0.38563442454002184           5.9894645657809775e-05       1.0000   
         C         C         1.0       0.8232848102617137  0.38710323321834356           0.9721241621767149 1.0000   
         C         C         1.0       0.7603200118764338  0.45760853509774624           0.9417153096104995 1.0000   
         C         C         1.0       0.7565018630935522  0.4938451496910329  0.9575144802537003 1.0000   
         C         C         1.0       0.7396594382442084  0.4979508999948512  0.9935169455145311 1.0000   
         C         C         1.0       0.7227728393724417  0.46731251796997686           0.01187386993015549          1.0000   
         C         C         1.0       0.728460721497722   0.43153330596863954           0.9949802380663898 1.0000   
         C         C         1.0       0.7476064826151269  0.42581307557897596           0.9615264363383057 1.0000   
         H         H         1.0       0.5272526967714066  0.31482116354896983           0.9921671702921085 1.0000   
         H         H         1.0       0.5879921791285917  0.3364450843706038  0.8880361672343794 1.0000   
         H         H         1.0       0.5400624581010971  0.3735227040407263  0.8629918539356305 1.0000   
         H         H         1.0       0.47600532399703466           0.35581604380051235          0.9692046665895662 1.0000   
         H         H         1.0       0.640907838627766   0.27519072745112527           0.883976974782936  1.0000   
         H         H         1.0       0.6244021999230999  0.22421023560015227           0.833124142310077  1.0000   
         H         H         1.0       0.5352253596193142  0.1880825882221914  0.9070913683781293 1.0000   
         H         H         1.0       0.5432941158636644  0.23663653273496432           0.9486556636097044 1.0000   
         H         H         1.0       0.6179635047962189  0.3756689640233336  0.9469126116951853 1.0000   
         H         H         1.0       0.6764284521399754  0.41009919957828755           0.935929430831082  1.0000   
         H         H         1.0       0.7361742963482841  0.300097563817083   0.947022694136883  1.0000   
         H         H         1.0       0.6761372901913892  0.26826063333953887           0.9516698229202205 1.0000   
         H         H         1.0       0.7582925014020963  0.3959317653319299  0.8062002301841309 1.0000   
         H         H         1.0       0.7341605581686478  0.4164892045477667  0.8736270380023925 1.0000   
         H         H         1.0       0.7949767965002554  0.318837613897875   0.9207822892687699 1.0000   
         H         H         1.0       0.8095467902940572  0.2973192256693655  0.8560968786942411 1.0000   
         H         H         1.0       0.7532098024781388  0.33805304761786653           0.01733378348565373          1.0000   
         H         H         1.0       0.8029602916657191  0.33591558657043213           0.06638955086051324          1.0000   
         H         H         1.0       0.8768343364439578  0.4012754980344973  0.9942402112674599 1.0000   
         H         H         1.0       0.8319182195066669  0.4016390346624086  0.9455223890576794 1.0000   
         H         H         1.0       0.7792724510507887  0.4551730315793693  0.9170407294546764 1.0000   
         H         H         1.0       0.772214335145177   0.5149604101407584  0.9419679499047253 1.0000   
         H         H         1.0       0.708412662855426   0.4731027477919468  0.04066698405243274          1.0000   
         H         H         1.0       0.7150265917274256  0.4072779742244207  0.010477482646638281         1.0000   
         C         C         1.0       0.8848113378787815  0.43607406580126146           0.20859203168614132          1.0000   
         C         C         1.0       0.9077251742485384  0.4528866047647784  0.23851532085577398          1.0000   
         C         C         1.0       0.9187680990449435  0.4326344028429553  0.2703486047751864 1.0000   
         C         C         1.0       0.9105060781370782  0.39389746421836863           0.2744858748331829 1.0000   
         C         C         1.0       0.8908727461937882  0.37592835400405    0.2424185873604277 1.0000   
         C         C         1.0       0.8778285293042785  0.3963841299903228  0.21122505016214613          1.0000   
         H         H         1.0       0.9162701369639863  0.4833565866669641  0.2400601792034982 1.0000   
         H         H         1.0       0.9350346705929512  0.4494330773039645  0.29277592092344246          1.0000   
         H         H         1.0       0.8875646702822599  0.34456683983839015           0.24156587592467735          1.0000   
         H         H         1.0       0.8595162244253747  0.3843087369405082  0.1881773400331372 1.0000   
         C         C         1.0       0.8569138194051037  0.34046694406866806           0.3168023639445384 1.0000   
         C         C         1.0       0.8969476830583497  0.3361407216100264  0.3222053657787981 1.0000   
         C         C         1.0       0.908595278804049   0.30080349254811795           0.3385416337198702 1.0000   
         C         C         1.0       0.8824566463951256  0.2761965129923861  0.3549174031764304 1.0000   
         C         C         1.0       0.842656464790607   0.28257899667306896           0.34911162816911206          1.0000   
         C         C         1.0       0.8310850934533026  0.3145203072813906  0.33065112109228834          1.0000   
         C         C         1.0       0.9259379686682506  0.3694603571566555  0.3097746019182862 1.0000   
         C         C         1.0       0.927246641092213   0.3895309689496032  0.350375612993465  1.0000   
         C         C         1.0       0.9521399335013033  0.37679108995556554           0.3780104496504817 1.0000   
         C         C         1.0       0.9489429712431569  0.3878902339893327  0.416863364939601  1.0000   
         C         C         1.0       0.9185512579289264  0.4101343361846183  0.43073164174992906          1.0000   
         C         C         1.0       0.893025266818965   0.424065150854346   0.4023867032642707 1.0000   
         C         C         1.0       0.898564382171349   0.4127492699207035  0.3635645756028729 1.0000   
         C         C         1.0       0.9641499946319939  0.32097513891990603           0.2664957494307415 1.0000   
         C         C         1.0       0.9915055904755705  0.3178469336605962  0.23672692483260763          1.0000   
         C         C         1.0       0.017001094083565205          0.34795279895740144          0.22953021670464402          1.0000   
         C         C         1.0       0.02389413380382699           0.37381668398933937          0.26023593672779555          1.0000   
         C         C         1.0       0.9963993088013765  0.37790956878622317           0.287655608978335  1.0000   
         C         C         1.0       0.9646601178623637  0.3536980280229593  0.2903428382717188 1.0000   
         C         C         1.0       0.03266132721919113           0.35627893616181283          0.18644167219721663          1.0000   
         C         C         1.0       0.13795180036011212           0.28911529343818937          0.18700324903111842          1.0000   
         C         C         1.0       0.1049514074118969  0.2736523523203837  0.1697818441736998 1.0000   
         C         C         1.0       0.07177798230405052           0.2958101366925124 0.17109048136863247          1.0000   
         C         C         1.0       0.0707438001591083  0.3320298649928731  0.1888246138989511 1.0000   
         C         C         1.0       0.10420038426879308           0.3442612405883874 0.20794867489267688          1.0000   
         C         C         1.0       0.13620301062376594           0.3214912328443034 0.21074726265058952          1.0000   
         C         C         1.0       0.04342434065343004           0.40082490753137845          0.17489810307506515          1.0000   
         C         C         1.0       0.026488266786489634          0.43467114068879276          0.18898276055470786          1.0000   
         C         C         1.0       0.03736869587321778           0.4705637476094664 0.17571418642710612          1.0000   
         C         C         1.0       0.06843369045700687           0.4738971993686345 0.14958339353542938          1.0000   
         C         C         1.0       0.08522797759354983           0.44056423911691533          0.13508418753053886          1.0000   
         C         C         1.0       0.0718927619932157  0.405645378948752   0.14602502869519118          1.0000   
         C         C         1.0       0.005114386370657753          0.3388678276390501 0.1156572328493699 1.0000   
         C         C         1.0       0.9743605857288062  0.3337329144543393  0.08970741456611053          1.0000   
         C         C         1.0       0.9372182430111983  0.343377332291432   0.09908882030506527          1.0000   
         C         C         1.0       0.9317298857535076  0.357131578494454   0.1374646290865278 1.0000   
         C         C         1.0       0.960466316116571   0.35962314014186525           0.16381515005254776          1.0000   
         C         C         1.0       0.9975707677074331  0.34721918958084763           0.1540919443181903 1.0000   
         H         H         1.0       0.8441748820804954  0.3653887747553165  0.30342574032352865          1.0000   
         H         H         1.0       0.9392106482895449  0.2966362496413134  0.34428610767627177          1.0000   
         H         H         1.0       0.8909517884242893  0.2504462344640377  0.37216324565081577          1.0000   
         H         H         1.0       0.8009625610794615  0.31817279016888483           0.3286946640728515 1.0000   
         H         H         1.0       0.9783375123601377  0.361327137614663   0.3700034210430537 1.0000   
         H         H         1.0       0.9714923026969071  0.37944094203381545           0.4382311805469688 1.0000   
         H         H         1.0       0.8680838636434394  0.4410245116361746  0.4100011960332841 1.0000   
         H         H         1.0       0.8762634464428105  0.4248615486312863  0.3432001736747631 1.0000   
         H         H         1.0       0.9421405501939641  0.29817012997601117           0.2661440744012578 1.0000   
         H         H         1.0       0.9885729419640661  0.29554159055377616           0.21566360901658954          1.0000   
         H         H         1.0       0.04522818999000022           0.3957222516837683 0.25747775332846246          1.0000   
         H         H         1.0       0.9971023742215925  0.40377378501901545           0.30403727764606886          1.0000   
         H         H         1.0       0.10391437278351456           0.2456947171272847 0.15882987983398844          1.0000   
         H         H         1.0       0.044367497734294936          0.28504978204868175          0.1569806677922858 1.0000   
         H         H         1.0       0.102213790892691   0.3720496903214031  0.22216624683039532          1.0000   
         H         H         1.0       0.16333519779831507           0.3320699041608974 0.22268582744204113          1.0000   
         H         H         1.0       0.002605029186644625          0.4343357724813899 0.21010414451336779          1.0000   
         H         H         1.0       0.019306007599479758          0.4943890401545253 0.18448669528762385          1.0000   
         H         H         1.0       0.10868877213206218           0.4413741922962715 0.1141854036483192 1.0000   
         H         H         1.0       0.08615233758738317           0.38255198674493657          0.1299872585168953 1.0000   
         H         H         1.0       0.03423190119504893           0.32949847861372966          0.10537097037040555          1.0000   
         H         H         1.0       0.979295589408195   0.3274112346867393  0.05896638761949591          1.0000   
         H         H         1.0       0.9014827133764303  0.36282207435970865           0.14321429342430747          1.0000   
         H         H         1.0       0.9567457914469975  0.3739182483870815  0.19203968833063834          1.0000   
         C         C         1.0       0.7860357938849578  0.6464659322547189  0.9743463977445647 1.0000   
         C         C         1.0       0.7895706437225191  0.6219078181461614  0.9414732312088028 1.0000   
         C         C         1.0       0.8208264323432775  0.6233168543148158  0.9166759118551515 1.0000   
         C         C         1.0       0.8503377645205816  0.6514873418467622  0.922978536245518  1.0000   
         C         C         1.0       0.8466335101247682  0.6759493318444176  0.9553193753850489 1.0000   
         C         C         1.0       0.8156132473146536  0.6717935607726778  0.9798537791520979 1.0000   
         H         H         1.0       0.7676675263954926  0.5990925661340863  0.9356611739957846 1.0000   
         H         H         1.0       0.8244723025097089  0.6032682071803888  0.8908289538443541 1.0000   
         H         H         1.0       0.8666895256028088  0.6972977081847757  0.9650929115119006 1.0000   
         H         H         1.0       0.810412599763168   0.6917618469079246  0.003019711750205767         1.0000   
         C         C         1.0       0.8964691097079083  0.7178226364097432  0.879185080199119  1.0000   
         C         C         1.0       0.9149913976292317  0.6849275474635966  0.890781340327193  1.0000   
         C         C         1.0       0.9555439975955505  0.6844792443842596  0.8910167971774181 1.0000   
         C         C         1.0       0.97471523778883    0.7183680361638639  0.8838147792536587 1.0000   
         C         C         1.0       0.9553918271734084  0.7522243226027561  0.8782460329313422 1.0000   
         C         C         1.0       0.9162562239259578  0.7525989617630059  0.8751467818542388 1.0000   
         C         C         1.0       0.8907202389210161  0.6463546792825396  0.898023302936224  1.0000   
         C         C         1.0       0.8844244984332809  0.6338159657110888  0.8525373175464415 1.0000   
         C         C         1.0       0.9130859235570542  0.6128290714038691  0.8335299050875276 1.0000   
         C         C         1.0       0.9085381272221906  0.60569883110922    0.7936869001624185 1.0000   
         C         C         1.0       0.8761913701927174  0.6145221362630571  0.7749279304414733 1.0000   
         C         C         1.0       0.8458563709970416  0.6314132689050058  0.7951235646120456 1.0000   
         C         C         1.0       0.8509716700506389  0.644332351256019   0.8327044681280583 1.0000   
         C         C         1.0       0.9301600487653037  0.6233998299089122  0.9557422637343518 1.0000   
         C         C         1.0       0.9435689073669483  0.5959100161327019  0.9798073790619084 1.0000   
         C         C         1.0       0.9334586530887587  0.5576582647196817  0.9746269178414692 1.0000   
         C         C         1.0       0.9132162827121302  0.546865590017162   0.9405749289066782 1.0000   
         C         C         1.0       0.901796810273919   0.5740202065915572  0.9157107037309431 1.0000   
         C         C         1.0       0.9105631718630307  0.6133503406463668  0.9219902379846832 1.0000   
         C         C         1.0       0.9354442483115643  0.5265165025196696  0.011535687220190605         1.0000   
         C         C         1.0       0.9608308156124928  0.40609221547665825           0.9777934702827675 1.0000   
         C         C         1.0       0.97149170876597    0.43588386338140395           0.9521599441487252 1.0000   
         C         C         1.0       0.9646237188027007  0.47477082304997786           0.9638938769403567 1.0000   
         C         C         1.0       0.9487885141284574  0.4838641286393589  0.9997189921679429 1.0000   
         C         C         1.0       0.9472894102231757  0.45387653277438456           0.026392763619991433         1.0000   
         C         C         1.0       0.9527337529817963  0.41622102547300005           0.01726107380532671          1.0000   
         C         C         1.0       0.8896660176858344  0.52825289720274    0.02343788293213045          1.0000   
         C         C         1.0       0.8732872168070047  0.562796173326445   0.03834694714680764          1.0000   
         C         C         1.0       0.8353062018668246  0.5641857769261174  0.05054425604659851          1.0000   
         C         C         1.0       0.8114707955560627  0.5315371912020568  0.04224225621411848          1.0000   
         C         C         1.0       0.8269755227048717  0.49894543336069924           0.029935356440045302         1.0000   
         C         C         1.0       0.8655569177925391  0.49656128508692854           0.02018590774591278          1.0000   
         C         C         1.0       0.005006038946290037          0.5481211127153264 0.036054321841407555         1.0000   
         C         C         1.0       0.03448872673184433           0.5462284348385978 0.062279470875522325         1.0000   
         C         C         1.0       0.02530330444226081           0.5411371068968248 0.10135200186943272          1.0000   
         C         C         1.0       0.9882761555167061  0.5403087641306691  0.1129805277224949 1.0000   
         C         C         1.0       0.9582580632021589  0.5374070191380534  0.085464242980966  1.0000   
         C         C         1.0       0.9663526389692813  0.5397452903083809  0.04531723766000928          1.0000   
         H         H         1.0       0.864690842005716   0.7223743066774061  0.8808361029416351 1.0000   
         H         H         1.0       0.968153321011472   0.657039605095061   0.8958392889448452 1.0000   
         H         H         1.0       0.007670380435880864          0.7170812067927309 0.8846253629269439 1.0000   
         H         H         1.0       0.9010500614182485  0.7779210031870735  0.8708672123138779 1.0000   
         H         H         1.0       0.9377399171559859  0.6004826841023241  0.8483085214997547 1.0000   
         H         H         1.0       0.9319726748875391  0.5927576957908081  0.7783012956356836 1.0000   
         H         H         1.0       0.820386766988312   0.6400723955686528  0.7806051692724039 1.0000   
         H         H         1.0       0.8347215857750201  0.6667773552371009  0.8452777697214515 1.0000   
         H         H         1.0       0.9331951105007755  0.6524383557359652  0.9663613275306411 1.0000   
         H         H         1.0       0.9544633291373721  0.6062536884411732  0.007677733752213367         1.0000   
         H         H         1.0       0.900460133893944   0.5181476400692179  0.936107475302198  1.0000   
         H         H         1.0       0.8833038732771564  0.5671940363190429  0.8927004974211943 1.0000   
         H         H         1.0       0.9799501458018395  0.4283893417233177  0.9230987736250067 1.0000   
         H         H         1.0       0.9719070037612041  0.49597506652777273           0.9438171254841538 1.0000   
         H         H         1.0       0.9368091928594773  0.46155165082865857           0.05516328101288748          1.0000   
         H         H         1.0       0.9495147414664354  0.3949427792387357  0.0397459393826638 1.0000   
         H         H         1.0       0.8893260543396126  0.5887862172354125  0.04301290691751736          1.0000   
         H         H         1.0       0.823434078001238   0.5910703991206266  0.058064554621901854         1.0000   
         H         H         1.0       0.8104657861205176  0.47281397937410435           0.025355575705485522         1.0000   
         H         H         1.0       0.8766865934505998  0.4738086257591932  0.002844215131716732         1.0000   
         H         H         1.0       0.01549628283394755           0.5512660064686372 0.005353780613241543         1.0000   
         H         H         1.0       0.06315222535009557           0.5532916563367192 0.052930748433619446         1.0000   
         H         H         1.0       0.9834634864945112  0.540381936798566   0.14359425080892652          1.0000   
         H         H         1.0       0.9291372820400693  0.5359208055641514  0.09558896907405479          1.0000   
         C         C         1.0       0.36402948412461145           0.31874871295072243          0.0030922695302411096        1.0000   
         C         C         1.0       0.36799067827426046           0.29232171057754996          0.031035438741366717         1.0000   
         C         C         1.0       0.3938984276880427  0.2999377663110015  0.06006966851518803          1.0000   
         C         C         1.0       0.4185099631036799  0.3302914627746202  0.0595825470214213 1.0000   
         C         C         1.0       0.41657481489908027           0.3547064923295357 0.02848643617948099          1.0000   
         C         C         1.0       0.3887134981568112  0.3487724705778731  0.9996944325630543 1.0000   
         H         H         1.0       0.3467463679519606  0.2697117664305849  0.03285043756297101          1.0000   
         H         H         1.0       0.39577988644419515           0.27853495261241185          0.08403593010882494          1.0000   
         H         H         1.0       0.4316333200962259  0.38258800939462445           0.02606967708782104          1.0000   
         H         H         1.0       0.38695221960805304           0.3725598932361587 0.9782192167823516 1.0000   
         C         C         1.0       0.5017556386245886  0.3741387816609016  0.05997433353267567          1.0000   
         C         C         1.0       0.4778059941142254  0.3702390287469641  0.0930576379040835 1.0000   
         C         C         1.0       0.49085552148949235           0.3901488870084014 0.12534679718964847          1.0000   
         C         C         1.0       0.5259539560458959  0.40635617312356426           0.12830995531857292          1.0000   
         C         C         1.0       0.5496390877220535  0.40934187685317647           0.09692003261895299          1.0000   
         C         C         1.0       0.5363351823660968  0.3952257708646416  0.06057523778502816          1.0000   
         C         C         1.0       0.44566764028254485           0.33760920582467047          0.09715789112590723          1.0000   
         C         C         1.0       0.4743721996384886  0.30213729063955724           0.10580562563458985          1.0000   
         C         C         1.0       0.4946035205431475  0.2983704207589636  0.1399471253358484 1.0000   
         C         C         1.0       0.5210755791369049  0.26916021790141437           0.1475183949796801 1.0000   
         C         C         1.0       0.5333113608698906  0.24785292728843772           0.1155491859096418 1.0000   
         C         C         1.0       0.5108533278261829  0.2453349648115763  0.08220109486442362          1.0000   
         C         C         1.0       0.4807242703882888  0.27229202298300376           0.07772296981513893          1.0000   
         C         C         1.0       0.39977048376328317           0.38694329702310215          0.13206597903805364          1.0000   
         C         C         1.0       0.3708912242647665  0.3954570478984148  0.15909628956067642          1.0000   
         C         C         1.0       0.3607603663877557  0.36940888714113257           0.18815079878626464          1.0000   
         C         C         1.0       0.37821514132153694           0.33343892247076207          0.18713937591214552          1.0000   
         C         C         1.0       0.40346586084782154           0.32407947276290794          0.15726147058532086          1.0000   
         C         C         1.0       0.41603365978952334           0.3508572063432405 0.1296582055023732 1.0000   
         C         C         1.0       0.3360058735331896  0.3801283754841082  0.22466952424745265          1.0000   
         C         C         1.0       0.41632809361542633           0.45115577475817575          0.29411180756276906          1.0000   
         C         C         1.0       0.38981906496245133           0.46923723599758393          0.27100759158207627          1.0000   
         C         C         1.0       0.36644631374171255           0.44736223071588876          0.24778059067845318          1.0000   
         C         C         1.0       0.36495650759515963           0.4076522349806305 0.24942051100075274          1.0000   
         C         C         1.0       0.39290622097836264           0.39066053844020454          0.2714779868924772 1.0000   
         C         C         1.0       0.4177640352783939  0.41187070022967687           0.2935556314957322 1.0000   
         C         C         1.0       0.31582941287833144           0.3430838090332747 0.2449986634875116 1.0000   
         C         C         1.0       0.2953126510063569  0.3173220471353909  0.2217811145372678 1.0000   
         C         C         1.0       0.2795014726482474  0.28438769752148413           0.23756731732683867          1.0000   
         C         C         1.0       0.2859575769581285  0.2766579177122055  0.27709589624755143          1.0000   
         C         C         1.0       0.3041965793679073  0.3039719742236305  0.3013494334618816 1.0000   
         C         C         1.0       0.31984172992267296           0.33718619716075   0.28587044690424757          1.0000   
         C         C         1.0       0.27898878729555787           0.4198361062445619 0.24786335285663855          1.0000   
         C         C         1.0       0.2418299822734592  0.43032502031918046           0.2464986682585787 1.0000   
         C         C         1.0       0.22164444029492783           0.4258430193103184 0.21143150403031694          1.0000   
         C         C         1.0       0.2402004837175662  0.4093534107377765  0.17951445879948413          1.0000   
         C         C         1.0       0.27894809763558354           0.4002090876817897 0.18147521903673014          1.0000   
         C         C         1.0       0.2990788887402704  0.4040344089080828  0.21634174451401433          1.0000   
         H         H         1.0       0.4926383688318061  0.3583204887260669  0.03384439125176075          1.0000   
         H         H         1.0       0.47386904568597354           0.3872889096804377 0.15231939431282493          1.0000   
         H         H         1.0       0.5342927480184094  0.4170048553412118  0.15702353514559597          1.0000   
         H         H         1.0       0.5522860545590553  0.40006621823757826           0.033446389515906505         1.0000   
         H         H         1.0       0.4871423554689662  0.3148213296984239  0.16580993376107722          1.0000   
         H         H         1.0       0.5364743394937711  0.26807807791976784           0.1739724222412833 1.0000   
         H         H         1.0       0.5192866451723758  0.22538271663704865           0.05909568794384312          1.0000   
         H         H         1.0       0.4657577651613321  0.27238352796796395           0.04950482260873312          1.0000   
         H         H         1.0       0.406181167842645   0.40809401450131694           0.10898435203587643          1.0000   
         H         H         1.0       0.35744497306549705           0.4245755274670148 0.1578067108053649 1.0000   
         H         H         1.0       0.3772876144594927  0.3130260917415399  0.2115258151208844 1.0000   
         H         H         1.0       0.415838047141264   0.29633341851398726           0.15755127952757067          1.0000   
         H         H         1.0       0.39118270142539996           0.5002065516330981 0.2672682994163677 1.0000   
         H         H         1.0       0.3474969362901869  0.46426045711999886           0.22730035119237496          1.0000   
         H         H         1.0       0.39749291144538174           0.359182251638704  0.27222416835650537          1.0000   
         H         H         1.0       0.4380079551530508  0.39588486839032044           0.3106535713095566 1.0000   
         H         H         1.0       0.2926606656217128  0.3245088266708424  0.191543271306183  1.0000   
         H         H         1.0       0.265321699985927   0.26381380466175497           0.21779713555329114          1.0000   
         H         H         1.0       0.3136016590622498  0.29597388037966127           0.33284007173168134          1.0000   
         H         H         1.0       0.3351544239411691  0.35618611289793733           0.30376425648098704          1.0000   
         H         H         1.0       0.29293257088908764           0.4158527634760606 0.2759475179100208 1.0000   
         H         H         1.0       0.22629856231316994           0.43668400124636164          0.2724936723603028 1.0000   
         H         H         1.0       0.22236722432626174           0.4031886535850171 0.1555195657296974 1.0000   
         H         H         1.0       0.2926489463573807  0.39089182463761746           0.153901862000302  1.0000   
         C         C         1.0       0.9315384971627428  0.4942110013445778  0.48219969033173754          1.0000   
         C         C         1.0       0.9302223614113388  0.5119720363709416  0.44581446649069534          1.0000   
         C         C         1.0       0.954815642158604   0.5413545444915332  0.4362425994432292 1.0000   
         C         C         1.0       0.9805896061508848  0.5543250093815539  0.46304379223289477          1.0000   
         C         C         1.0       0.980393062050292   0.5375440879477487  0.5006589765691261 1.0000   
         C         C         1.0       0.957231354154881   0.5069429935419498  0.5101027702393468 1.0000   
         H         H         1.0       0.9101857622404924  0.5008537494525649  0.4229588188413771 1.0000   
         H         H         1.0       0.9575022014407811  0.5576444012103136  0.4110888706433544 1.0000   
         H         H         1.0       0.9978122127926098  0.544833671847348   0.5249103294016811 1.0000   
         H         H         1.0       0.9631257615742507  0.493877185472217   0.538108781298173  1.0000   
         C         C         1.0       0.9904653675672943  0.625341917774746   0.5168481494756882 1.0000   
         C         C         1.0       0.019612219883341497          0.6157500081597997 0.4912730001898581 1.0000   
         C         C         1.0       0.05650535409611912           0.6293676717182167 0.4998787412701259 1.0000   
         C         C         1.0       0.06340330588221388           0.6502485506391745 0.5316921921718678 1.0000   
         C         C         1.0       0.032776626445207846          0.6602066804601368 0.5581119692553498 1.0000   
         C         C         1.0       0.9964840182587217  0.6469790659749632  0.5489838555312325 1.0000   
         C         C         1.0       0.011232290382780397          0.5875878987629253 0.45428526285791976          1.0000   
         C         C         1.0       0.9943762177848332  0.6229123210791484  0.425536829712235  1.0000   
         C         C         1.0       0.01787256369767709           0.6445185942751742 0.4016670494256056 1.0000   
         C         C         1.0       0.004538582449245432          0.6765365035495362 0.38207909081249136          1.0000   
         C         C         1.0       0.9655643666425251  0.6864883611153144  0.3852247955235995 1.0000   
         C         C         1.0       0.9413078033657449  0.6651254939538244  0.40874728404665595          1.0000   
         C         C         1.0       0.9562386403329901  0.6339517628278583  0.42796749204876233          1.0000   
         C         C         1.0       0.07140353208950523           0.544350898118481  0.45933986063580096          1.0000   
         C         C         1.0       0.09870978806732268           0.5174050652534358 0.4460883392707236 1.0000   
         C         C         1.0       0.10322263696297607           0.5098722240458169 0.4061404381820376 1.0000   
         C         C         1.0       0.08152064465622844           0.5327817118568753 0.38072020833271586          1.0000   
         C         C         1.0       0.05290417728200425           0.5588725517941515 0.39529128075258024          1.0000   
         C         C         1.0       0.04747820470606934           0.5639498762727405 0.43626192110364986          1.0000   
         C         C         1.0       0.13083602832539712           0.4747750077696944 0.39178533649076963          1.0000   
         C         C         1.0       0.24734693735773805           0.48168547374721127          0.4450562100589644 1.0000   
         C         C         1.0       0.2332084237826882  0.44708417605446726           0.4325000424553138 1.0000   
         C         C         1.0       0.19727967460335413           0.4436506493103172 0.4168125379910277 1.0000   
         C         C         1.0       0.17328873068131218           0.47558447390584213          0.41337036188981846          1.0000   
         C         C         1.0       0.18748431648890532           0.5107466015238259 0.4250616426659879 1.0000   
         C         C         1.0       0.22369889373898946           0.512757949656846  0.44144649004099173          1.0000   
         C         C         1.0       0.13985941062741772           0.4770961053630823 0.3454101760738815 1.0000   
         C         C         1.0       0.1133548101647115  0.46255980584087797           0.31925174730882067          1.0000   
         C         C         1.0       0.11863308685992656           0.4645318793540693 0.27924510917235346          1.0000   
         C         C         1.0       0.15084425423894812           0.4806287749592714 0.26503734016420166          1.0000   
         C         C         1.0       0.17565594518919123           0.49959802386643487          0.28931299747271044          1.0000   
         C         C         1.0       0.1707172690459445  0.49925310548271695           0.3292122911560401 1.0000   
         C         C         1.0       0.11906468126721671           0.40114259489351617          0.3849092449251604 1.0000   
         C         C         1.0       0.10272884289577133           0.36637060252068654          0.3948591827788102 1.0000   
         C         C         1.0       0.07468474679839154           0.3656122912693671 0.42417957464490363          1.0000   
         C         C         1.0       0.06352505884029269           0.39846272192597953          0.4448597278880923 1.0000   
         C         C         1.0       0.07884482314961638           0.4329799181353687 0.43135404203799305          1.0000   
         C         C         1.0       0.1086088737134232  0.4354495896065791  0.4027004487597276 1.0000   
         H         H         1.0       0.9603123876355357  0.6172461621501943  0.5120302132844092 1.0000   
         H         H         1.0       0.08158047564871729           0.6233632489386955 0.479625911758916  1.0000   
         H         H         1.0       0.09158123479228442           0.66111861019421   0.5393707746898462 1.0000   
         H         H         1.0       0.9724527966503299  0.6509862043263837  0.5712145987539516 1.0000   
         H         H         1.0       0.04829520277107502           0.6425436591801021 0.4042656264529563 1.0000   
         H         H         1.0       0.02294845201742146           0.693350678441523  0.3650392611974551 1.0000   
         H         H         1.0       0.9094599342696169  0.6708049394167231  0.41314306859254624          1.0000   
         H         H         1.0       0.9399981111686719  0.6229883550850676  0.4537616991938822 1.0000   
         H         H         1.0       0.06708741438649857           0.5442455085072053 0.491122139372305  1.0000   
         H         H         1.0       0.11469568402855934           0.49990801028290593          0.46527631579854295          1.0000   
         H         H         1.0       0.08365099166399359           0.5300989914158452 0.34963093493039   1.0000   
         H         H         1.0       0.034134110553511565          0.5729090420839934 0.37555873742904977          1.0000   
         H         H         1.0       0.25006039703968647           0.4213734517928024 0.43560496239209584          1.0000   
         H         H         1.0       0.18788480887240858           0.4144868877063705 0.40712970697078166          1.0000   
         H         H         1.0       0.17000783910904585           0.5364858493105487 0.4223504215381732 1.0000   
         H         H         1.0       0.23567441574065945           0.5408274200560224 0.4542976525079706 1.0000   
         H         H         1.0       0.08533119240504972           0.45228793823637053          0.3259351901135761 1.0000   
         H         H         1.0       0.09618725408386086           0.45471013350126266          0.2597337105060714 1.0000   
         H         H         1.0       0.2002531791232729  0.5143393568552903  0.27906995100599746          1.0000   
         H         H         1.0       0.1926601470284369  0.5122027136358189  0.34796599803970263          1.0000   
         H         H         1.0       0.1419207438736682  0.4004209178341062  0.36202641538344604          1.0000   
         H         H         1.0       0.10949894321764986           0.33754126903624193          0.3827717675692841 1.0000   
         H         H         1.0       0.03789812718937147           0.39904032417791796          0.46329742613508257          1.0000   
         H         H         1.0       0.06364798476913269           0.4561883179237036 0.44584861857461217          1.0000   
         C         C         1.0       0.25188530734177283           0.1094982857011153 0.4040380661895128 1.0000   
         C         C         1.0       0.22363835742604304           0.12605901212888848          0.42811197953965163          1.0000   
         C         C         1.0       0.22710671542359395           0.12944427211192314          0.4672741709341584 1.0000   
         C         C         1.0       0.2586861826185044  0.11344186397513756           0.48699470821619517          1.0000   
         C         C         1.0       0.2877388463385557  0.09793669918335723           0.4627992709034309 1.0000   
         C         C         1.0       0.2848532206411767  0.09617874909872182           0.4226120701123549 1.0000   
         H         H         1.0       0.19632000438217076           0.136440758520055  0.41666013368684546          1.0000   
         H         H         1.0       0.20429655521686557           0.14049709529981008          0.4828984061744649 1.0000   
         H         H         1.0       0.31481396153015245           0.08467261533182557          0.47367315850189484          1.0000   
         H         H         1.0       0.30881567898874485           0.08244820676143783          0.4072895236840139 1.0000   
         C         C         1.0       0.2964060815398102  0.05617471409842589           0.5467795639645465 1.0000   
         C         C         1.0       0.2980730454760455  0.09737375838418116           0.54698218834082   1.0000   
         C         C         1.0       0.330775831896655   0.11374143522639946           0.5639193291187486 1.0000   
         C         C         1.0       0.3587517901633406  0.08925510150921934           0.580284347614721  1.0000   
         C         C         1.0       0.35666851439253816           0.04968643046309773          0.5752105718078733 1.0000   
         C         C         1.0       0.32614627844942284           0.03347321650719204          0.5577390227305083 1.0000   
         C         C         1.0       0.2608846568309185  0.12145274278768481           0.5328937115733814 1.0000   
         C         C         1.0       0.22671881829544802           0.10693634599014135          0.5604364770508499 1.0000   
         C         C         1.0       0.23223751537533976           0.11107782944317268          0.6011093866396434 1.0000   
         C         C         1.0       0.20326120824987248           0.09777012176174193          0.6259262225604352 1.0000   
         C         C         1.0       0.1730289699884861  0.07442789975785025           0.6107524789357188 1.0000   
         C         C         1.0       0.17111504021518564           0.06847073467299847          0.5710509957821587 1.0000   
         C         C         1.0       0.19710266772492413           0.08459995747158588          0.5466292758641854 1.0000   
         C         C         1.0       0.2943852346721955  0.18745463393002915           0.5151120347686781 1.0000   
         C         C         1.0       0.28412091470065043           0.22132211203697774          0.49766623485900635          1.0000   
         C         C         1.0       0.249128880465463   0.2389273059191623  0.5016889649972606 1.0000   
         C         C         1.0       0.22803719497753303           0.22442522328316378          0.5318073702076104 1.0000   
         C         C         1.0       0.23595830448174993           0.19008609213547778          0.549079864948788  1.0000   
         C         C         1.0       0.26640280401672944           0.16845631939548597          0.5375662402601259 1.0000   
         C         C         1.0       0.23169230430727197           0.2733179912324112 0.47777973935567053          1.0000   
         C         C         1.0       0.2993433402787431  0.36470358622715804           0.5328193424573415 1.0000   
         C         C         1.0       0.3043570223704464  0.35666082303234176           0.49240109739722426          1.0000   
         C         C         1.0       0.2856473806089611  0.3252332283820848  0.47521280062608134          1.0000   
         C         C         1.0       0.2562016798294918  0.3070330006642414  0.49633244223971396          1.0000   
         C         C         1.0       0.2476106967507514  0.3196420068444001  0.5345434215755495 1.0000   
         C         C         1.0       0.26935128869308167           0.3473677168113714 0.5524552633731653 1.0000   
         C         C         1.0       0.1866362946496108  0.28050870680766565           0.4815664746136137 1.0000   
         C         C         1.0       0.15792900556662703           0.25163940717880967          0.4759104119718742 1.0000   
         C         C         1.0       0.11991543267596527           0.26137268935675295          0.47283306757504046          1.0000   
         C         C         1.0       0.10885294091807474           0.299299028765798  0.4793427431437996 1.0000   
         C         C         1.0       0.13391078164126602           0.326496039892271  0.48936413848189514          1.0000   
         C         C         1.0       0.17288583530419888           0.31828743085363703          0.48683741412148096          1.0000   
         C         C         1.0       0.2240358635489821  0.2927388189305853  0.4056286984807962 1.0000   
         C         C         1.0       0.22346252831935245           0.28347086334736465          0.36483311125775003          1.0000   
         C         C         1.0       0.22786287592826487           0.24584178680136687          0.351372534604109  1.0000   
         C         C         1.0       0.23722673160202484           0.21848599232983013          0.37854981106937524          1.0000   
         C         C         1.0       0.23829921844518398           0.22620428692560138          0.41716907558580063          1.0000   
         C         C         1.0       0.23195111808213073           0.26379219834833123          0.43214762201849827          1.0000   
         H         H         1.0       0.2708500853877125  0.04010052535689601           0.536131254994815  1.0000   
         H         H         1.0       0.3346480563110798  0.1442878755727022  0.5621540819297988 1.0000   
         H         H         1.0       0.3826960307482434  0.09832236091099156           0.5987718142681304 1.0000   
         H         H         1.0       0.32077817378076423           0.0026499942959483658        0.5578644073030936 1.0000   
         H         H         1.0       0.25412380379085886           0.13008352999095132          0.6096725287538811 1.0000   
         H         H         1.0       0.20313814321187407           0.11020515897617901          0.6545324030500788 1.0000   
         H         H         1.0       0.14625704896257113           0.050523089331139914         0.5589842954735422 1.0000   
         H         H         1.0       0.19415088879041398           0.07590520741114615          0.5157979281295428 1.0000   
         H         H         1.0       0.3225395521641753  0.17319367267678817           0.5073054737293924 1.0000   
         H         H         1.0       0.3031263860638906  0.23341879258109427           0.47734398920932686          1.0000   
         H         H         1.0       0.2007103768352356  0.23640485293901484           0.5384134341079484 1.0000   
         H         H         1.0       0.21256616437594858           0.17906566024102996          0.5685209971997748 1.0000   
         H         H         1.0       0.32897177431625146           0.3674025750605248 0.47675364723580355          1.0000   
         H         H         1.0       0.2960006695747474  0.3178730468055491  0.4459521059340454 1.0000   
         H         H         1.0       0.2249564328591773  0.3040265969953322  0.5501034759844318 1.0000   
         H         H         1.0       0.26578444628108333           0.34986405671021675          0.5845353157366459 1.0000   
         H         H         1.0       0.16576782457712408           0.22237390324748577          0.4701823795880228 1.0000   
         H         H         1.0       0.09964901673805215           0.2371232329771046 0.4694212375160663 1.0000   
         H         H         1.0       0.12652372295818584           0.35532862796442616          0.4992231698528423 1.0000   
         H         H         1.0       0.1929624488195806  0.34219526992844546           0.4933134210364584 1.0000   
         H         H         1.0       0.21955328360531512           0.3224840244395252 0.41531007285665683          1.0000   
         H         H         1.0       0.22005100102464994           0.3060781863524603 0.3423651840442875 1.0000   
         H         H         1.0       0.243833835640885   0.18991988480416971           0.36872393916073704          1.0000   
         H         H         1.0       0.24598680273812942           0.20107277133188126          0.43550491308523887          1.0000   
         C         C         1.0       0.2395283104183489  0.33287980494385033           0.7813395578743697 1.0000   
         C         C         1.0       0.26358513236888365           0.32528963175493997          0.8129304655707671 1.0000   
         C         C         1.0       0.26397846053232027           0.3493147188131328 0.8448065479339751 1.0000   
         C         C         1.0       0.24055287642305923           0.38133885911021503          0.8450962148299167 1.0000   
         C         C         1.0       0.2162416520208042  0.3885859119143874  0.8138679552876793 1.0000   
         C         C         1.0       0.21439365429932436           0.36378715766267977          0.7835231288221641 1.0000   
         H         H         1.0       0.27895484572691337           0.2973092011877895 0.8137086846111758 1.0000   
         H         H         1.0       0.27875944313933504           0.3402981006004447 0.8700146751767645 1.0000   
         H         H         1.0       0.19380465697646349           0.41141566826679854          0.817375699914706  1.0000   
         H         H         1.0       0.1912213323223127  0.3697018693955987  0.7609669807578905 1.0000   
         C         C         1.0       0.245977373174199   0.4718023843562874  0.8396317731392431 1.0000   
         C         C         1.0       0.22347947296691772           0.45263156135792176          0.8672810465562769 1.0000   
         C         C         1.0       0.19350064772761638           0.4735211146295803 0.8848248741964664 1.0000   
         C         C         1.0       0.18654336038942934           0.5125573324343105 0.8737157922824688 1.0000   
         C         C         1.0       0.20858221322824383           0.5306079678009613 0.8474052545363027 1.0000   
         C         C         1.0       0.23832721979629815           0.5097886560273357 0.8306128199718662 1.0000   
         C         C         1.0       0.23590182520530084           0.41045167223010437          0.8817371866383376 1.0000   
         C         C         1.0       0.2732084747155289  0.4266062285238184  0.9060636570704635 1.0000   
         C         C         1.0       0.26651570390739016           0.4504934674758152 0.9403520295003762 1.0000   
         C         C         1.0       0.29561529024789557           0.45919895747272027          0.9647367752074454 1.0000   
         C         C         1.0       0.3308019684981321  0.447980475143259   0.9562308238854852 1.0000   
         C         C         1.0       0.338713842039246   0.4260502389221317  0.9236739280722968 1.0000   
         C         C         1.0       0.31059925100067104           0.415523823428213  0.898306586768985  1.0000   
         C         C         1.0       0.1705288428251322  0.3813842171114793  0.9046157474174942 1.0000   
         C         C         1.0       0.1464365347551167  0.364180526994165   0.931279031209753  1.0000   
         C         C         1.0       0.16225167410236163           0.3521394367933306 0.9672632617807425 1.0000   
         C         C         1.0       0.20153588609219408           0.35329590058571664          0.9711166223769957 1.0000   
         C         C         1.0       0.22468769544658662           0.36828162142463855          0.9437597373621353 1.0000   
         C         C         1.0       0.20895183287977914           0.3867506097598289 0.9128293859924813 1.0000   
         C         C         1.0       0.13547663228122464           0.3482191277630516 0.004448956162521167         1.0000   
         C         C         1.0       0.09547920275472932           0.4664084968690159 0.9968397910458232 1.0000   
         C         C         1.0       0.06905606644279527           0.4374634866333025 0.9976635575273338 1.0000   
         C         C         1.0       0.0807938035157596  0.39990709730276575           0.0031092836775648003        1.0000   
         C         C         1.0       0.11806547883660712           0.39193722164128114          0.009499275921420969         1.0000   
         C         C         1.0       0.14494593103403908           0.42206837764714467          0.012701465330098527         1.0000   
         C         C         1.0       0.13272896924379274           0.4583845516526534 0.006558392097359311         1.0000   
         C         C         1.0       0.15185899081220788           0.3356085755239292 0.04632645137208646          1.0000   
         C         C         1.0       0.16834693613316154           0.29949601616936933          0.04677714344397854          1.0000   
         C         C         1.0       0.18762560602330924           0.28661096060307206          0.07929509058319884          1.0000   
         C         C         1.0       0.18779804774007114           0.31034643891286373          0.11225546831418787          1.0000   
         C         C         1.0       0.17317616797123403           0.3471962241065749 0.11092192959654601          1.0000   
         C         C         1.0       0.15241156002503242           0.3583234308909372 0.07966754857732461          1.0000   
         C         C         1.0       0.07359812790978193           0.3099809309388886 0.024329035889263606         1.0000   
         C         C         1.0       0.05023046651774932           0.277656821597254  0.022823039576317594         1.0000   
         C         C         1.0       0.05559096503540295           0.24915207972086806          0.9953015151068195 1.0000   
         C         C         1.0       0.08469205506314958           0.25396664252508694          0.9685088846408355 1.0000   
         C         C         1.0       0.10866710659125123           0.28621810065940695          0.9685428357610188 1.0000   
         C         C         1.0       0.10432057903654424           0.31372364587573937          0.9972410662098236 1.0000   
         H         H         1.0       0.2718915781741937  0.4585389901061299  0.8259262095566597 1.0000   
         H         H         1.0       0.17543037674760173           0.4630094549088303 0.9095115226139203 1.0000   
         H         H         1.0       0.16563113029683132           0.5283839781967945 0.8911979109225184 1.0000   
         H         H         1.0       0.25694012317167136           0.5196203419488653 0.8075883867451396 1.0000   
         H         H         1.0       0.23799779609952407           0.45938608598026237          0.944564642025433  1.0000   
         H         H         1.0       0.2936680446104253  0.47573584844773426           0.9906560548188846 1.0000   
         H         H         1.0       0.36993478458115764           0.4183641642634321 0.9167575906237302 1.0000   
         H         H         1.0       0.3171448182146723  0.3967521039974     0.8721941406090994 1.0000   
         H         H         1.0       0.15399843486825587           0.3957930514576248 0.8816025210418301 1.0000   
         H         H         1.0       0.11494917359960712           0.3669617297159579 0.9264511656840684 1.0000   
         H         H         1.0       0.2150609338460978  0.343602118934742   0.9963183219477686 1.0000   
         H         H         1.0       0.2559736235977234  0.36815228434300273           0.9479568792947466 1.0000   
         H         H         1.0       0.03844373263823808           0.4415575876938153 0.9925224841606057 1.0000   
         H         H         1.0       0.055331548108753514          0.38136170307171713          0.9954233154536174 1.0000   
         H         H         1.0       0.17383352945204966           0.4170781901764896 0.018946824726825184         1.0000   
         H         H         1.0       0.15503113423768045           0.4808183030529991 0.009316349448349026         1.0000   
         H         H         1.0       0.17075414731583627           0.2818225114768123 0.020743228801270108         1.0000   
         H         H         1.0       0.1979898461433569  0.25670513254868566           0.07946885641901225          1.0000   
         H         H         1.0       0.17689569870117094           0.367287030504924  0.13594665754011204          1.0000   
         H         H         1.0       0.1421881992376055  0.3875370691429721  0.07951084690452714          1.0000   
         H         H         1.0       0.07063815422269548           0.32983487832163233          0.04899338166003031          1.0000   
         H         H         1.0       0.030574149367256664          0.27343465899752656          0.046159146445739596         1.0000   
         H         H         1.0       0.08910921814338502           0.23326872519970726          0.9448958661875766 1.0000   
         H         H         1.0       0.13009618149948965           0.2841878510182086 0.9469942383167449 1.0000   
         C         C         1.0       0.5720140787263974  0.4953475247180972  0.11821615224502868          1.0000   
         C         C         1.0       0.5888117943002864  0.5238298540423154  0.09490993163091477          1.0000   
         C         C         1.0       0.5657972101985712  0.554030012549236   0.08049368753948394          1.0000   
         C         C         1.0       0.5263952219189538  0.5548408293779804  0.0895225467171179 1.0000   
         C         C         1.0       0.5117540738091421  0.5270986848591526  0.11443013015205561          1.0000   
         C         C         1.0       0.5353749341289323  0.5006242438056828  0.13112482578126694          1.0000   
         H         H         1.0       0.6195683131869341  0.5241131315804064  0.08903652151206076          1.0000   
         H         H         1.0       0.5793837169990549  0.5768571241835044  0.06912636075876266          1.0000   
         H         H         1.0       0.47956854025298695           0.5259801864691416 0.11929533693018479          1.0000   
         H         H         1.0       0.5241745140274817  0.4783888911733194  0.1458244314331294 1.0000   
         C         C         1.0       0.4807855759980671  0.5168421071815248  0.026415198929528927         1.0000   
         C         C         1.0       0.46947460437701366           0.551668611225166  0.041121933995514004         1.0000   
         C         C         1.0       0.4351078149492915  0.5665500735041346  0.02918791345706029          1.0000   
         C         C         1.0       0.4101597208274601  0.5466641181719163  0.004749470149150836         1.0000   
         C         C         1.0       0.41855118567530186           0.5097170391133768 0.9936074188647507 1.0000   
         C         C         1.0       0.4530012660763841  0.4940036888798299  0.007575437781782046         1.0000   
         C         C         1.0       0.4984142699374882  0.5804151506585201  0.06332060062654143          1.0000   
         C         C         1.0       0.5136186317833703  0.6033424163109167  0.02362322704732711          1.0000   
         C         C         1.0       0.5010966106441965  0.6421052753805665  0.016581261840439288         1.0000   
         C         C         1.0       0.5138352384781116  0.6618061043559038  0.9863936870268213 1.0000   
         C         C         1.0       0.5334676483794288  0.6441523208886974  0.9563760671185754 1.0000   
         C         C         1.0       0.5455203115721526  0.6065288274875449  0.9600134480184698 1.0000   
         C         C         1.0       0.5384421298611121  0.5882227651519284  0.9959014521610474 1.0000   
         C         C         1.0       0.4468851501282183  0.6004162748532783  0.1148888135613495 1.0000   
         C         C         1.0       0.4252968623809681  0.6324022622708207  0.12443808725039696          1.0000   
         C         C         1.0       0.4358348478042975  0.6710362596625765  0.11685279109948143          1.0000   
         C         C         1.0       0.47521233162274656           0.6752060809903229 0.10961384584000688          1.0000   
         C         C         1.0       0.49928727443114024           0.6441893040354789 0.1042640104289374 1.0000   
         C         C         1.0       0.4831993301449831  0.6075397127412305  0.09722696453331792          1.0000   
         C         C         1.0       0.4018051916019684  0.7019260007624837  0.10484577945006879          1.0000   
         C         C         1.0       0.3331896102341545  0.627536741335645   0.027389442273096698         1.0000   
         C         C         1.0       0.3216124511501786  0.630652785236366   0.06497531237418319          1.0000   
         C         C         1.0       0.34006427416441887           0.6567341577093148 0.08729609452404352          1.0000   
         C         C         1.0       0.37351001692514824           0.6764249635692307 0.07617643088961956          1.0000   
         C         C         1.0       0.386022112160956   0.670175551731248   0.03908866850563819          1.0000   
         C         C         1.0       0.3671762786082818  0.6451230412386181  0.013922979711744832         1.0000   
         C         C         1.0       0.4184656895551126  0.7416613380175479  0.08686828719974637          1.0000   
         C         C         1.0       0.4458777236278779  0.7614442475425686  0.10698764296198116          1.0000   
         C         C         1.0       0.4566228896247609  0.7978308637595265  0.09753684887586278          1.0000   
         C         C         1.0       0.4365670013285772  0.8184336682930206  0.06954397926417344          1.0000   
         C         C         1.0       0.4092695049198724  0.7991024956453415  0.04767099329923696          1.0000   
         C         C         1.0       0.397293108475786   0.7622651053710294  0.0595399361186042 1.0000   
         C         C         1.0       0.34489506116347246           0.7380543989801689 0.1316657341018559 1.0000   
         C         C         1.0       0.33000455080474667           0.7671669884825112 0.1543039752299693 1.0000   
         C         C         1.0       0.3510314228224061  0.7818926185694687  0.18491034350554947          1.0000   
         C         C         1.0       0.38302505707782336           0.7605059534446629 0.19821526895464747          1.0000   
         C         C         1.0       0.3941812379712892  0.7276384193486264  0.17831422457527046          1.0000   
         C         C         1.0       0.3775481593666916  0.717340403569741   0.14154714093022136          1.0000   
         H         H         1.0       0.5064464566879667  0.5045320579797533  0.03791258845171419          1.0000   
         H         H         1.0       0.4278205480327824  0.5958103685399243  0.039911902007006894         1.0000   
         H         H         1.0       0.3836617518950473  0.5618805884629127  0.9976283595225044 1.0000   
         H         H         1.0       0.46392143489832227           0.46606212505137756          0.00045281505493921514       1.0000   
         H         H         1.0       0.48171739291937804           0.6563803801982123 0.035337725811415144         1.0000   
         H         H         1.0       0.5062041091507435  0.6922494522858379  0.9823604893090998 1.0000   
         H         H         1.0       0.5653747486985842  0.589394414516666   0.9427848780526839 1.0000   
         H         H         1.0       0.5485616553478193  0.5601677873747395  0.9989235906538887 1.0000   
         H         H         1.0       0.43010786733620343           0.5730722801602504 0.11366493589003746          1.0000   
         H         H         1.0       0.39585939383501173           0.6262271601123308 0.13314062728158915          1.0000   
         H         H         1.0       0.4891998375542305  0.7008296662164567  0.10068576002143836          1.0000   
         H         H         1.0       0.5273875327111883  0.6459538754730035  0.0938661288224023 1.0000   
         H         H         1.0       0.2986649274572009  0.6138460322608951  0.07792042521767062          1.0000   
         H         H         1.0       0.33196515800541926           0.6569350191574492 0.11746385440884866          1.0000   
         H         H         1.0       0.4116864506839951  0.6837169399052138  0.028886966962894167         1.0000   
         H         H         1.0       0.37329465465086004           0.6438119245743368 0.9838453868587141 1.0000   
         H         H         1.0       0.4632399448164745  0.7508263210085517  0.12993376483329921          1.0000   
         H         H         1.0       0.4799555671100626  0.8086243723482501  0.11383758436017066          1.0000   
         H         H         1.0       0.3926149451615479  0.8109903001756333  0.025342305430687162         1.0000   
         H         H         1.0       0.3745165045958683  0.7498093647195814  0.043311786720887424         1.0000   
         H         H         1.0       0.3329653250143741  0.7338007268753609  0.10234234233774742          1.0000   
         H         H         1.0       0.3101042227435639  0.7850355255125274  0.13910423521564041          1.0000   
         H         H         1.0       0.4024302813461236  0.7700628931947059  0.22273669413962988          1.0000   
         H         H         1.0       0.42280062257597456           0.7167993927601203 0.18474597411016958          1.0000   
         C         C         1.0       0.43247374116181647           0.4430008390373422 0.8590955597340048 1.0000   
         C         C         1.0       0.394498955346356   0.44835882188847814           0.8500776688900934 1.0000   
         C         C         1.0       0.3780848833638794  0.4844191835980842  0.8444212936565667 1.0000   
         C         C         1.0       0.4011975479794162  0.5176855518849084  0.8475826598390538 1.0000   
         C         C         1.0       0.44044433729132915           0.5113870201563794 0.8524955594599916 1.0000   
         C         C         1.0       0.4552418147994835  0.47502773038260304           0.8584484655727123 1.0000   
         H         H         1.0       0.3722684714908822  0.42659687416661213           0.8502727952519797 1.0000   
         H         H         1.0       0.3490926196292985  0.48201888608464805           0.8382103577345313 1.0000   
         H         H         1.0       0.4591803515012459  0.5358582150849215  0.8502863112283514 1.0000   
         H         H         1.0       0.4865784210699115  0.4741175613153685  0.8665642026733504 1.0000   
         C         C         1.0       0.42119184132526727           0.5960425832988727 0.8947084177634099 1.0000   
         C         C         1.0       0.41548699932898076           0.5950831781782171 0.8541535842623053 1.0000   
         C         C         1.0       0.4287925307756186  0.6251738882250801  0.8307435122971263 1.0000   
         C         C         1.0       0.45504796625031374           0.6508322489394469 0.8465901071828515 1.0000   
         C         C         1.0       0.4662382711344004  0.6488786284343706  0.8854522710128387 1.0000   
         C         C         1.0       0.44766722168738227           0.6227818767385036 0.9096086280630508 1.0000   
         C         C         1.0       0.38912003522486555           0.5617679084842792 0.8359625667958738 1.0000   
         C         C         1.0       0.347678264247593   0.5745198260802858  0.8505421096948853 1.0000   
         C         C         1.0       0.3271124928267578  0.6044063238372392  0.8324408948098412 1.0000   
         C         C         1.0       0.28918023088127415           0.6135105907950278 0.84209523021548   1.0000   
         C         C         1.0       0.27227309150185136           0.5935850722446895 0.8716674742800576 1.0000   
         C         C         1.0       0.29277233959641097           0.5668621495894555 0.8939540918679845 1.0000   
         C         C         1.0       0.33000651303269907           0.5571485450181914 0.8809656609180769 1.0000   
         C         C         1.0       0.4286952256926974  0.5609627247674521  0.7687023606673189 1.0000   
         C         C         1.0       0.43098664920770013           0.5533082416683599 0.7286751692947742 1.0000   
         C         C         1.0       0.39970496657871285           0.5401683106737267 0.7073951906708674 1.0000   
         C         C         1.0       0.36562539249992737           0.5358406207300269 0.7291050030342952 1.0000   
         C         C         1.0       0.36290151223280953           0.5416558326568431 0.768221276773471  1.0000   
         C         C         1.0       0.3940152650888961  0.5557996030380404  0.7889526861783136 1.0000   
         C         C         1.0       0.40183833027316945           0.5375510909724691 0.6599875855470636 1.0000   
         C         C         1.0       0.3394761215162027  0.6498537446488802  0.6453715791851716 1.0000   
         C         C         1.0       0.37906514856816353           0.6487915498372167 0.6555333544471917 1.0000   
         C         C         1.0       0.39883360980781296           0.6133753056521761 0.659688455378782  1.0000   
         C         C         1.0       0.37994101901342503           0.57822318860861   0.6536196422882455 1.0000   
         C         C         1.0       0.3413330212061182  0.5819630954889454  0.6401525777729926 1.0000   
         C         C         1.0       0.3219187389720736  0.6165768000290638  0.635192801778293  1.0000   
         C         C         1.0       0.3807526688888159  0.5040726007737306  0.6342410871163318 1.0000   
         C         C         1.0       0.36440640081782855           0.4720990434107862 0.6517837766733527 1.0000   
         C         C         1.0       0.33923793439010935           0.44878959052431583          0.6319996117836267 1.0000   
         C         C         1.0       0.33284112241500824           0.4550273801135343 0.5925955810945642 1.0000   
         C         C         1.0       0.3523116202635907  0.4826632346801958  0.5720265816470868 1.0000   
         C         C         1.0       0.3763625415121524  0.5079668240505714  0.5943442460346734 1.0000   
         C         C         1.0       0.4676956497199591  0.5572886224852424  0.6239760829912729 1.0000   
         C         C         1.0       0.5069551968196978  0.5533000057785303  0.6176032136774503 1.0000   
         C         C         1.0       0.5268879336685239  0.5259392324978905  0.6399522069230579 1.0000   
         C         C         1.0       0.5062182504501657  0.49926382728012    0.6621313592844531 1.0000   
         C         C         1.0       0.4652476612087042  0.5020024111767266  0.6630239079543387 1.0000   
         C         C         1.0       0.44618238148075795           0.5330236482545319 0.6467519304162976 1.0000   
         H         H         1.0       0.408551503543388   0.5750046672066838  0.9133315581069064 1.0000   
         H         H         1.0       0.41968233530372995           0.6282718419561045 0.8023574740294408 1.0000   
         H         H         1.0       0.46537595501731716           0.6736744822286824 0.8283615469784789 1.0000   
         H         H         1.0       0.4549659684092306  0.6252088078070701  0.9401439876237181 1.0000   
         H         H         1.0       0.3401990030612389  0.6191934210530851  0.807978163310065  1.0000   
         H         H         1.0       0.27358878985185786           0.6341225568103235 0.8278982021130966 1.0000   
         H         H         1.0       0.28038199008201586           0.5537912899078452 0.9226396825541172 1.0000   
         H         H         1.0       0.34421552318905974           0.5346398993954764 0.8962328155879904 1.0000   
         H         H         1.0       0.4551858259376961  0.568451291302104   0.7840041328688873 1.0000   
         H         H         1.0       0.45937332831631306           0.5623251658117132 0.715558985088764  1.0000   
         H         H         1.0       0.3404740737136968  0.5250062942390558  0.7147306739599838 1.0000   
         H         H         1.0       0.338669977187162   0.5342530681226391  0.7849155719719934 1.0000   
         H         H         1.0       0.395999691747726   0.6727018110774415  0.6647631654961657 1.0000   
         H         H         1.0       0.4293716466663955  0.6115268403915084  0.6684884639700667 1.0000   
         H         H         1.0       0.3238452261808782  0.5567222322762799  0.6340315819237294 1.0000   
         H         H         1.0       0.2930778143536912  0.6152448666859348  0.6232815103123307 1.0000   
         H         H         1.0       0.37200697069025224           0.46855010812572234          0.6830600516494726 1.0000   
         H         H         1.0       0.3273505957469566  0.4220293473802165  0.6463600699917218 1.0000   
         H         H         1.0       0.3509818409129285  0.4862292397856429  0.5425968640888083 1.0000   
         H         H         1.0       0.3893069923149781  0.5319962483133008  0.5793042851852929 1.0000   
         H         H         1.0       0.45090280035176716           0.5800276095232113 0.6106956025395416 1.0000   
         H         H         1.0       0.5216939109581155  0.5730205114799486  0.5991980263896968 1.0000   
         H         H         1.0       0.5212909925868173  0.4748667573128584  0.6725278248921057 1.0000   
         H         H         1.0       0.4499774128394455  0.480291282362883   0.6795663181535793 1.0000   
         C         C         1.0       0.802526916984751   0.28470450485620996           0.43616080127081236          1.0000   
         C         C         1.0       0.8217463527551124  0.3161056291272444  0.44932216975773953          1.0000   
         C         C         1.0       0.8402902458183623  0.31517130619832434           0.4843863347548025 1.0000   
         C         C         1.0       0.838096023893445   0.2832831407534303  0.5089751297120062 1.0000   
         C         C         1.0       0.8116656694741362  0.2555852199814385  0.49798846270985286          1.0000   
         C         C         1.0       0.7969785239842806  0.25381208674715194           0.4617229684102021 1.0000   
         H         H         1.0       0.8231954913107725  0.3423625188262266  0.4308743473872459 1.0000   
         H         H         1.0       0.8538257055454039  0.3424461561391355  0.495269758261734  1.0000   
         H         H         1.0       0.8046344670257026  0.23075060040924789           0.5149419513875352 1.0000   
         H         H         1.0       0.7819433157366618  0.22720601177531513           0.4494311863138761 1.0000   
         C         C         1.0       0.8255389390328985  0.33863659169413013           0.5806844963203555 1.0000   
         C         C         1.0       0.8248816512857978  0.2987785619855756  0.5775721292404431 1.0000   
         C         C         1.0       0.791491754899124   0.2792289956226873  0.5901020016452019 1.0000   
         C         C         1.0       0.7597043573399525  0.2999255920808491  0.6055362771347156 1.0000   
         C         C         1.0       0.7614822179420606  0.33931603700095886           0.6057361271783006 1.0000   
         C         C         1.0       0.7959240002301612  0.357892323324361   0.5950700695044201 1.0000   
         C         C         1.0       0.8580274793896412  0.27808663109419324           0.551107920074777  1.0000   
         C         C         1.0       0.9008006242873965  0.29652242599722695           0.5568916162130261 1.0000   
         C         C         1.0       0.9107145192649833  0.30413718321342764           0.5936215826447306 1.0000   
         C         C         1.0       0.9460979346975311  0.32110776503741356           0.6029149584730578 1.0000   
         C         C         1.0       0.9725063504366304  0.32719587864198507           0.574185155907042  1.0000   
         C         C         1.0       0.9645336350849736  0.3177506728893962  0.5361387600652218 1.0000   
         C         C         1.0       0.9279639039659585  0.3050884766673236  0.5278141356148623 1.0000   
         C         C         1.0       0.8857523143159947  0.2134364931854641  0.5262385185285928 1.0000   
         C         C         1.0       0.8851961438812935  0.173803986725178   0.5250616156064492 1.0000   
         C         C         1.0       0.8677077167229579  0.15436865793077775           0.554513461396706  1.0000   
         C         C         1.0       0.8612665331604747  0.17407017262518412           0.5887542617083914 1.0000   
         C         C         1.0       0.8594907538033042  0.2136966531774241  0.590682558213565  1.0000   
         C         C         1.0       0.8684560830438486  0.23338936481461334           0.5566522239123043 1.0000   
         C         C         1.0       0.847613814303906   0.11132748873589415           0.5455813929298214 1.0000   
         C         C         1.0       0.730005362910766   0.16104977141006246           0.5448319146718814 1.0000   
         C         C         1.0       0.7548211402252665  0.16463469431364924           0.513723555539316  1.0000   
         C         C         1.0       0.7904184798297125  0.14878792298471316           0.5128687144058971 1.0000   
         C         C         1.0       0.8028575250561443  0.1265280961003865  0.5439101478524887 1.0000   
         C         C         1.0       0.7806175180593513  0.12239211672835526           0.5763376950138968 1.0000   
         C         C         1.0       0.7431934150485329  0.13865519939808643           0.5755314419518465 1.0000   
         C         C         1.0       0.8595273909981354  0.08142660346920194           0.5787336302745691 1.0000   
         C         C         1.0       0.8966758781472015  0.08429480341347162           0.5948158884304666 1.0000   
         C         C         1.0       0.9131127298913099  0.051842903273298324         0.6098248434177252 1.0000   
         C         C         1.0       0.8913951056037471  0.01886580916492897           0.6162530269564952 1.0000   
         C         C         1.0       0.8528467842781026  0.01829394205457735           0.6065893060972034 1.0000   
         C         C         1.0       0.8367457095827531  0.04870712786276399           0.5865953339882061 1.0000   
         C         C         1.0       0.830745010273832   0.06574647847883242           0.4868696898360238 1.0000   
         C         C         1.0       0.8380987388473851  0.04405484362224765           0.45391289777541916          1.0000   
         C         C         1.0       0.8759480794165944  0.042081410716855006         0.4407029172858979 1.0000   
         C         C         1.0       0.9043046380434734  0.06096428808986997           0.46220144474010094          1.0000   
         C         C         1.0       0.8956074179700884  0.08327346335556074           0.49315500294591413          1.0000   
         C         C         1.0       0.8596157682104808  0.08598093652628536           0.5074008634540108 1.0000   
         H         H         1.0       0.8492195290778274  0.3557378163817729  0.5722057813471655 1.0000   
         H         H         1.0       0.7899871613954148  0.24883874811096496           0.5861647417734291 1.0000   
         H         H         1.0       0.7334799683251295  0.28263092433545334           0.6095436080361871 1.0000   
         H         H         1.0       0.8002869231558848  0.3882958661525115  0.599524423721928  1.0000   
         H         H         1.0       0.8926569944761135  0.2997707688276514  0.618285742649623  1.0000   
         H         H         1.0       0.9499879732061175  0.3297798838094235  0.6326660116170861 1.0000   
         H         H         1.0       0.9869180418545814  0.3187203471201777  0.513240733938493  1.0000   
         H         H         1.0       0.9232366435655782  0.30083771010092475           0.495758648217991  1.0000   
         H         H         1.0       0.8955247726392418  0.23032817309247314           0.5012173225322369 1.0000   
         H         H         1.0       0.8938738293675259  0.15398166967733323           0.5025829951580458 1.0000   
         H         H         1.0       0.8460019240405787  0.1604920871261482  0.6126465066011959 1.0000   
         H         H         1.0       0.8490377599554     0.22855947568648186           0.6148301641946975 1.0000   
         H         H         1.0       0.7446797285312639  0.18290243141153453           0.489746001892561  1.0000   
         H         H         1.0       0.8108890961632831  0.15501218296396063           0.48935380780965265          1.0000   
         H         H         1.0       0.7897371852869762  0.11048664118967033           0.6026052463041178 1.0000   
         H         H         1.0       0.7261481678647967  0.13299737248787347           0.6011217930133469 1.0000   
         H         H         1.0       0.9160160223799312  0.10797771014635815           0.5885187367583116 1.0000   
         H         H         1.0       0.9436108700610913  0.051502899229443955         0.6149659733574114 1.0000   
         H         H         1.0       0.8368859896770066  0.9938086460261103  0.616574462560638  1.0000   
         H         H         1.0       0.8075918910672524  0.044198766940948486         0.5738960127978627 1.0000   
         H         H         1.0       0.8019034952598725  0.06711958267421458           0.4950538541604993 1.0000   
         H         H         1.0       0.8138925326728398  0.03448213856397131           0.4342955467396804 1.0000   
         H         H         1.0       0.9351675392873514  0.06177877985585578           0.45153771821141253          1.0000   
         H         H         1.0       0.916046921448773   0.09607503085714786           0.5095193571767851 1.0000   
         C         C         1.0       0.031383063730383576          0.6204282807095048 0.6385701148303871 1.0000   
         C         C         1.0       0.0004133636803695939         0.6219221298279886 0.6634901677822069 1.0000   
         C         C         1.0       0.9815685377215847  0.5877761742693288  0.672012745563032  1.0000   
         C         C         1.0       0.9905549339681532  0.5537338993981096  0.6528635897225085 1.0000   
         C         C         1.0       0.019468196575306296          0.5540692230679362 0.6254993380681615 1.0000   
         C         C         1.0       0.04226197353308336           0.5858774908592149 0.6212482868120448 1.0000   
         H         H         1.0       0.9946731120883677  0.6493475613630816  0.6774503447009453 1.0000   
         H         H         1.0       0.9573890699481743  0.5862930254936874  0.692000208002072  1.0000   
         H         H         1.0       0.02721412150451341           0.5273597719882152 0.6107392106643234 1.0000   
         H         H         1.0       0.0635832363573603  0.5845488370987357  0.5989728193415526 1.0000   
         C         C         1.0       0.9539970238917497  0.4531392146739103  0.6192369925227227 1.0000   
         C         C         1.0       0.9772698569999914  0.47744149421540766           0.6410309020889199 1.0000   
         C         C         1.0       0.016616303812125865          0.46537371108857273          0.6451370786245708 1.0000   
         C         C         1.0       0.029390971097372764          0.43264380002741737          0.6263882977770078 1.0000   
         C         C         1.0       0.006099263974644664          0.4130210541699245 0.6016323039327123 1.0000   
         C         C         1.0       0.9679265929826408  0.4223180003799405  0.5989164436706135 1.0000   
         C         C         1.0       0.9634853386082121  0.5170826544145486  0.6613897012910659 1.0000   
         C         C         1.0       0.9247347628830253  0.5320822299163395  0.6418465446791065 1.0000   
         C         C         1.0       0.9242551612257905  0.5431138293250146  0.6023243112022021 1.0000   
         C         C         1.0       0.8926613286692553  0.5616183919280063  0.5857242274717513 1.0000   
         C         C         1.0       0.8592738897063138  0.5649006626086573  0.6077584916151084 1.0000   
         C         C         1.0       0.8562171220664682  0.5470470206900018  0.6433176492638055 1.0000   
         C         C         1.0       0.8888270267589731  0.5312808134847639  0.660314128674472  1.0000   
         C         C         1.0       0.993415017816228   0.5159917631771843  0.7298392243995607 1.0000   
         C         C         1.0       0.003436382829971496          0.4983540186274957 0.7626376835096319 1.0000   
         C         C         1.0       0.9833259379264685  0.46655988538276977           0.7771303879749392 1.0000   
         C         C         1.0       0.9480645819523867  0.4583863142192452  0.7589439995389151 1.0000   
         C         C         1.0       0.9390769078539406  0.4765272995877563  0.7234444019127926 1.0000   
         C         C         1.0       0.9630452095422499  0.503604217919064   0.7071511665475841 1.0000   
         C         C         1.0       0.004480463354640252          0.43581748491308586          0.8055066184542828 1.0000   
         C         C         1.0       0.0609524469643028  0.3636507597452161  0.713117581231733  1.0000   
         C         C         1.0       0.08188775794884218           0.39243814824654016          0.7331426900966175 1.0000   
         C         C         1.0       0.062481468301566645          0.41721636038652166          0.7589874625114867 1.0000   
         C         C         1.0       0.024329313999764235          0.40988112838051577          0.7695413588968921 1.0000   
         C         C         1.0       0.003846640344209673          0.381082964773896  0.7495587688320805 1.0000   
         C         C         1.0       0.021289793887161457          0.3605006845545564 0.7208916555707819 1.0000   
         C         C         1.0       0.9798689084620515  0.40712605683940295           0.8330440127113666 1.0000   
         C         C         1.0       0.9426027885831532  0.4172687851734333  0.845200916835764  1.0000   
         C         C         1.0       0.9261690533752365  0.3988200202737858  0.876270699491     1.0000   
         C         C         1.0       0.9443228900903259  0.3675978344287356  0.8918981674593847 1.0000   
         C         C         1.0       0.9772833047215833  0.3531821170181402  0.8759219485607788 1.0000   
         C         C         1.0       0.9969129418706189  0.3741469421222931  0.8487860521384986 1.0000   
         C         C         1.0       0.06250123576831146           0.43885247113591397          0.8557017075526365 1.0000   
         C         C         1.0       0.084514388295724   0.45632706252975463           0.8855807605524296 1.0000   
         C         C         1.0       0.07189417933131481           0.488934502890815  0.9034373588600323 1.0000   
         C         C         1.0       0.039264734936294454          0.5074796700500154 0.8882649362766954 1.0000   
         C         C         1.0       0.019104755875696267          0.4898917900243659 0.8596265287841033 1.0000   
         C         C         1.0       0.030598133437098607          0.455834003716797  0.8398603954048017 1.0000   
         H         H         1.0       0.9226879181904132  0.45790049023089535           0.6119989362222825 1.0000   
         H         H         1.0       0.03760621979878742           0.4790902278074015 0.6620804196918486 1.0000   
         H         H         1.0       0.05974492866589576           0.42378070061529255          0.6295439536460341 1.0000   
         H         H         1.0       0.9476439339965319  0.40782404346310097           0.5802891646134439 1.0000   
         H         H         1.0       0.950378211886189   0.5420454514804901  0.5861238241444814 1.0000   
         H         H         1.0       0.8985617926887234  0.5701113487205351  0.5544679948016705 1.0000   
         H         H         1.0       0.8295187236323428  0.546182620127177   0.6564464725981799 1.0000   
         H         H         1.0       0.8870690393161073  0.521935083806907   0.6896172554501839 1.0000   
         H         H         1.0       0.013136619026017149          0.5382733434688661 0.7187596055037112 1.0000   
         H         H         1.0       0.03229315449275938           0.5066580150513312 0.77293352494983   1.0000   
         H         H         1.0       0.9330747476833153  0.43432166647573023           0.769732834133409  1.0000   
         H         H         1.0       0.9131609054954525  0.46813313140441604           0.7062293938219707 1.0000   
         H         H         1.0       0.11218154281698434           0.39775912727875334          0.7278723060266432 1.0000   
         H         H         1.0       0.07785272077422056           0.44105475959064094          0.7749507437100098 1.0000   
         H         H         1.0       0.9747131953346851  0.3717472020568981  0.7609257167470879 1.0000   
         H         H         1.0       0.002904984588224524          0.33613171926618707          0.7092405256011727 1.0000   
         H         H         1.0       0.9285426635152616  0.4432842297862255  0.8361722823591555 1.0000   
         H         H         1.0       0.8976325667231487  0.4086170494725365  0.8882285411133657 1.0000   
         H         H         1.0       0.9868492074089964  0.3249732650638735  0.8825014217912791 1.0000   
         H         H         1.0       0.023883471643428855          0.36638089247404654          0.8342329109513367 1.0000   
         H         H         1.0       0.07132076611100935           0.4123409175079925 0.8399182034369796 1.0000   
         H         H         1.0       0.11021612056057561           0.43976374155495135          0.8958509787719193 1.0000   
         H         H         1.0       0.028861166925167936          0.5366870350499784 0.8980582141824218 1.0000   
         H         H         1.0       0.9906370158578757  0.5039580793434572  0.8512052656065507 1.0000   
         C         C         1.0       0.768524222563632   0.44352459958589135           0.34464653655174454          1.0000   
         C         C         1.0       0.7538254524193838  0.41738962853263945           0.3706583477314194 1.0000   
         C         C         1.0       0.7383550874027499  0.4272916811199486  0.4056315634327954 1.0000   
         C         C         1.0       0.7385882074784298  0.46559905208549    0.41863222041253667          1.0000   
         C         C         1.0       0.7524055597220313  0.4926035761979072  0.39236665668654813          1.0000   
         C         C         1.0       0.7690732222999666  0.4822363502839967  0.35620652318261614          1.0000   
         H         H         1.0       0.7490813484318084  0.3889136373432279  0.35954860960285445          1.0000   
         H         H         1.0       0.7295783392716529  0.40447184169763056           0.4235482254808639 1.0000   
         H         H         1.0       0.7538484511708462  0.5249724226248146  0.39921126634807197          1.0000   
         H         H         1.0       0.7725630321555622  0.5043318939778175  0.3357128163041626 1.0000   
         C         C         1.0       0.7876169630381477  0.5124173824689469  0.47798918210524644          1.0000   
         C         C         1.0       0.7480381620287319  0.5074040012865216  0.4854229990887355 1.0000   
         C         C         1.0       0.7317669329375842  0.5277894868587903  0.5158306076995932 1.0000   
         C         C         1.0       0.7520692963226225  0.5520183570112788  0.5384022953099129 1.0000   
         C         C         1.0       0.7916822833852825  0.5572023340938633  0.5307451194502146 1.0000   
         C         C         1.0       0.8091081942354482  0.5381373751371169  0.4993975006992789 1.0000   
         C         C         1.0       0.7211850568373712  0.478256975181884   0.45947960473852906          1.0000   
         C         C         1.0       0.711996145508216   0.44616494779747845           0.49154246277949815          1.0000   
         C         C         1.0       0.6817781285684947  0.4491529728686555  0.5195881474993918 1.0000   
         C         C         1.0       0.6730509166854699  0.418912708021825   0.5441806508356767 1.0000   
         C         C         1.0       0.6994597471526145  0.3877057233504227  0.5452320223042999 1.0000   
         C         C         1.0       0.7318911716561332  0.38692083552502204           0.52259190992748   1.0000   
         C         C         1.0       0.7389767266203313  0.41667441266820887           0.4973633087647921 1.0000   
         C         C         1.0       0.6779804917490992  0.5376529858658745  0.4442723823494587 1.0000   
         C         C         1.0       0.6418429387719355  0.5529757888174925  0.4451314358056849 1.0000   
         C         C         1.0       0.608824324995292   0.5317920727740759  0.44167300292154554          1.0000   
         C         C         1.0       0.6130819379778134  0.4925041840062279  0.4370142045572341 1.0000   
         C         C         1.0       0.6495923873134926  0.4748593849104925  0.4391436579786999 1.0000   
         C         C         1.0       0.6812503009317722  0.49799645147619687           0.4474241102841773 1.0000   
         C         C         1.0       0.5664603003476114  0.5527394687775378  0.45119650346489354          1.0000   
         C         C         1.0       0.5830438339920616  0.5149001813376063  0.5702831096001788 1.0000   
         C         C         1.0       0.5919203677709286  0.5519830472461801  0.5598061204574806 1.0000   
         C         C         1.0       0.5821746890783405  0.565146758223493   0.5234851447175582 1.0000   
         C         C         1.0       0.5621438846336251  0.5406579789016042  0.49582310405620134          1.0000   
         C         C         1.0       0.5527486467579042  0.5033385616452555  0.5072670299192252 1.0000   
         C         C         1.0       0.5618208318655677  0.49145518765517404           0.5448991198894024 1.0000   
         C         C         1.0       0.5314120354386999  0.5364725837426836  0.4224660289251525 1.0000   
         C         C         1.0       0.5389010699880036  0.5263103433575861  0.3828341866054614 1.0000   
         C         C         1.0       0.5105538423070755  0.5170745089765673  0.35693254754724885          1.0000   
         C         C         1.0       0.47400154287256807           0.5118065119735743 0.3711079698192095 1.0000   
         C         C         1.0       0.46519009471858097           0.5245036966081276 0.40937659403458626          1.0000   
         C         C         1.0       0.4935814742688238  0.5367403760276149  0.43402916888794346          1.0000   
         C         C         1.0       0.5374957385782727  0.623220977170093   0.45996535649479203          1.0000   
         C         C         1.0       0.531137155869492   0.6586027512080207  0.445290834870404  1.0000   
         C         C         1.0       0.5481096647350155  0.6700574921868678  0.41083779178129554          1.0000   
         C         C         1.0       0.5716181676316764  0.644829357399173   0.3919844469662124 1.0000   
         C         C         1.0       0.5801509636297446  0.6091838360851536  0.40593466025603625          1.0000   
         C         C         1.0       0.5639383542957952  0.5974038606310981  0.44082549496101586          1.0000   
         H         H         1.0       0.8004283806836872  0.4944272386524192  0.4574085032121592 1.0000   
         H         H         1.0       0.700295939288495   0.5257643703847833  0.5213276671704888 1.0000   
         H         H         1.0       0.7349162036881882  0.5688292616172885  0.5573504424523508 1.0000   
         H         H         1.0       0.8370238362742605  0.5434156398950309  0.490677599296796  1.0000   
         H         H         1.0       0.6663908377746027  0.4775075945765955  0.5235184633370038 1.0000   
         H         H         1.0       0.6499632411999259  0.4219521350434861  0.5650688381041378 1.0000   
         H         H         1.0       0.754155502879184   0.36519833107677235           0.5255998216362642 1.0000   
         H         H         1.0       0.7637345690495209  0.41500883570988784           0.47898180315795913          1.0000   
         H         H         1.0       0.7001139083539142  0.5584062957093352  0.4508710170017986 1.0000   
         H         H         1.0       0.6390974622137634  0.5843206004785532  0.4509973052131157 1.0000   
         H         H         1.0       0.5863179947668659  0.4742973778842551  0.43546242499589527          1.0000   
         H         H         1.0       0.6512795958164382  0.4436348246605921  0.44202294414127324          1.0000   
         H         H         1.0       0.6049341411460386  0.5725223564814065  0.5797386017825076 1.0000   
         H         H         1.0       0.594091464422913   0.593403577448248   0.5148829589717138 1.0000   
         H         H         1.0       0.5404472379304306  0.48366014151368303           0.4886510434931834 1.0000   
         H         H         1.0       0.5563161213527651  0.462722670464904   0.5536478040704502 1.0000   
         H         H         1.0       0.5671492537898911  0.5284940497144894  0.3707263579926391 1.0000   
         H         H         1.0       0.5204605260391256  0.5104722759431743  0.3284958116168211 1.0000   
         H         H         1.0       0.43544781482082273           0.5188924061938729 0.41962873833976094          1.0000   
         H         H         1.0       0.4877517542074672  0.5448001737079808  0.4658516240435513 1.0000   
         H         H         1.0       0.5243590013636287  0.6160241832921831  0.48659976068887895          1.0000   
         H         H         1.0       0.5144251432336034  0.6764554800302799  0.4640133005175574 1.0000   
         H         H         1.0       0.5820872970922601  0.6524830470704068  0.364433151231179  1.0000   
         H         H         1.0       0.5934176244579367  0.5861154813406378  0.3881231922823982 1.0000   
         C         C         1.0       0.11762852636144962           0.028354115269972224         0.1597753955865422 1.0000   
         C         C         1.0       0.14979674781454283           0.04347655290617913          0.18044098919472742          1.0000   
         C         C         1.0       0.1842486264218586  0.023653967706091183         0.1829458899360398 1.0000   
         C         C         1.0       0.1879274904862222  0.9865192281578702  0.16482124155567734          1.0000   
         C         C         1.0       0.1549476764887969  0.9729546933087928  0.14195955974706442          1.0000   
         C         C         1.0       0.12256850813514368           0.9947455400614983 0.13786230720106807          1.0000   
         H         H         1.0       0.1506459151160954  0.07058685392071462           0.1987581481723929 1.0000   
         H         H         1.0       0.20680810899365035           0.03587494688601822          0.20086946192335736          1.0000   
         H         H         1.0       0.1576725154896702  0.9483572723818329  0.12260400232699076          1.0000   
         H         H         1.0       0.10083885757699473           0.9860937311300986 0.11775532640787345          1.0000   
         C         C         1.0       0.1873493167361845  0.9012902405364754  0.1933283496614936 1.0000   
         C         C         1.0       0.21875963936757273           0.9147252072198818 0.17111811015798314          1.0000   
         C         C         1.0       0.24638906328708687           0.8865846018409672 0.15793999425135852          1.0000   
         C         C         1.0       0.23953008771259532           0.8485206170942174 0.16304506713172176          1.0000   
         C         C         1.0       0.20835517046067514           0.8354341420772201 0.18377357693038301          1.0000   
         C         C         1.0       0.18338483915718654           0.8628113580010558 0.19917702602724843          1.0000   
         C         C         1.0       0.2259875800378506  0.9609858106842434  0.16505358225810646          1.0000   
         C         C         1.0       0.2556655660436998  0.9674758901869188  0.2002985057458324 1.0000   
         C         C         1.0       0.29537551324509903           0.9660927847544394 0.1942712992331751 1.0000   
         C         C         1.0       0.32156157900621285           0.9697681833207453 0.22386010773572   1.0000   
         C         C         1.0       0.3086791194803648  0.978720252122136   0.26146575166703934          1.0000   
         C         C         1.0       0.27099742371666113           0.9782257101824462 0.269483508394169  1.0000   
         C         C         1.0       0.2449158792362867  0.9717013583396195  0.24016476936586004          1.0000   
         C         C         1.0       0.23525478146013643           0.9465456345527258 0.09205517233481264          1.0000   
         C         C         1.0       0.2632904668610175  0.9428741229951216  0.0627945526947087 1.0000   
         C         C         1.0       0.2959338343344508  0.9654872895171288  0.0642493757748348 1.0000   
         C         C         1.0       0.29654490020562185           0.9965827654545202 0.09013469803725484          1.0000   
         C         C         1.0       0.2684288269498858  0.9995052122651703  0.11823456728707593          1.0000   
         C         C         1.0       0.24287823051712984           0.9691892636430265 0.12392841893416295          1.0000   
         C         C         1.0       0.3359293167427504  0.950217338062279   0.04516153827307412          1.0000   
         C         C         1.0       0.3629947163530762  0.8756089440069528  0.1449727425146572 1.0000   
         C         C         1.0       0.3410537603087271  0.8624235579268481  0.1144971225442315 1.0000   
         C         C         1.0       0.3349472084928884  0.88332116454343    0.0810983093315234 1.0000   
         C         C         1.0       0.34788649114695785           0.9216060965903452 0.07903531737147529          1.0000   
         C         C         1.0       0.3681112848903935  0.9352304201469627  0.11140620004476931          1.0000   
         C         C         1.0       0.3777722878745986  0.9125540535977392  0.14349111410498017          1.0000   
         C         C         1.0       0.3688853397269941  0.980161636520558   0.036071421425549755         1.0000   
         C         C         1.0       0.3616915595338114  0.01549813582799775           0.02026601841618314          1.0000   
         C         C         1.0       0.39130198412243816           0.03957517562739721          0.008471086319772336         1.0000   
         C         C         1.0       0.429074484301751   0.02933956577279928           0.01156851957467886          1.0000   
         C         C         1.0       0.43744591814554784           0.9934761497884294 0.02794748314079376          1.0000   
         C         C         1.0       0.4082807324863501  0.9702231461917149  0.04024021651928322          1.0000   
         C         C         1.0       0.36405666395894004           0.9037992191320708 0.9911560592282755 1.0000   
         C         C         1.0       0.36856980397920924           0.8916518302412708 0.9538620706440025 1.0000   
         C         C         1.0       0.3404961759331892  0.8982727226030555  0.9273207356077361 1.0000   
         C         C         1.0       0.30816135888752477           0.9215401030336313 0.9367902862353165 1.0000   
         C         C         1.0       0.3061984108680787  0.9381901042347526  0.973982637421654  1.0000   
         C         C         1.0       0.3341894139393572  0.9286195345857847  0.002545859740521017         1.0000   
         H         H         1.0       0.1650015918025266  0.9191594363905675  0.20762324623152362          1.0000   
         H         H         1.0       0.27400176844569346           0.8959475528449291 0.14683073708347694          1.0000   
         H         H         1.0       0.26138729490380974           0.8295223719247656 0.1536437339571845 1.0000   
         H         H         1.0       0.1570465379331609  0.8562541747458959  0.21357053658044903          1.0000   
         H         H         1.0       0.3082599842862175  0.959273752668848   0.16585884719103608          1.0000   
         H         H         1.0       0.35321769838996625           0.9685473900626781 0.2187115925784775 1.0000   
         H         H         1.0       0.26247113749841167           0.9823767957636521 0.29917717410796624          1.0000   
         H         H         1.0       0.21311673619588054           0.9692095129997369 0.24377239647366603          1.0000   
         H         H         1.0       0.2135557189028612  0.9251057167428862  0.09234503591819987          1.0000   
         H         H         1.0       0.2579213614009102  0.9206776312898171  0.03961673078410044          1.0000   
         H         H         1.0       0.3204220376969873  0.016792418611699   0.09063542555262427          1.0000   
         H         H         1.0       0.2692634393104602  0.02518522939343204           0.1394467918757707 1.0000   
         H         H         1.0       0.332831939935959   0.8333608972859959  0.11473738475578954          1.0000   
         H         H         1.0       0.32083232231015174           0.8669275805734244 0.056735159443010996         1.0000   
         H         H         1.0       0.37740286228658654           0.9648008543712107 0.11091069817943566          1.0000   
         H         H         1.0       0.39446805574658456           0.9274267174092572 0.16298565237696383          1.0000   
         H         H         1.0       0.3327234107890251  0.0233564710361176  0.011810273712555608         1.0000   
         H         H         1.0       0.38172880223432454           0.06769041172664747          0.9948078532799134 1.0000   
         H         H         1.0       0.4671952076224687  0.9830971905288681  0.034877000136242176         1.0000   
         H         H         1.0       0.41691912156447253           0.941333234021884  0.05164187116175922          1.0000   
         H         H         1.0       0.38815494903395703           0.9011643213048464 0.010508284607773533         1.0000   
         H         H         1.0       0.397354214072011   0.8808544478972623  0.9444793437532641 1.0000   
         H         H         1.0       0.28776698042324367           0.9236999849542132 0.9124910451010025 1.0000   
         H         H         1.0       0.28269817039921286           0.9585519509540057 0.980092585556129  1.0000   
         C         C         1.0       0.43985590128377755           0.020576270823794873         0.5357302013984876 1.0000   
         C         C         1.0       0.44877270579100303           0.9846253051866174 0.5250498239307809 1.0000   
         C         C         1.0       0.4635105221287812  0.9764517562616131  0.4880422013176534 1.0000   
         C         C         1.0       0.4646212397305573  0.00306744508550727           0.4583536117882613 1.0000   
         C         C         1.0       0.4533182491981954  0.04035442908486364           0.4703701367374335 1.0000   
         C         C         1.0       0.4431470980533322  0.04904927551919824           0.5081511422813562 1.0000   
         H         H         1.0       0.4478734659251807  0.9620589806202376  0.5465008711159749 1.0000   
         H         H         1.0       0.4723689758881067  0.9480442738312543  0.484952995587617  1.0000   
         H         H         1.0       0.4531397287258665  0.06393554791541245           0.4496053041281074 1.0000   
         H         H         1.0       0.4378724344450986  0.0785975592978283  0.5163436829928906 1.0000   
         C         C         1.0       0.4062220252710343  0.019414764663312933         0.39727444104014403          1.0000   
         C         C         1.0       0.4432360746085445  0.013440699130917277         0.3847193770309389 1.0000   
         C         C         1.0       0.4508127001389539  0.022610682460606046         0.3459000223236318 1.0000   
         C         C         1.0       0.4207630450131652  0.029569648683893668         0.31871226044060447          1.0000   
         C         C         1.0       0.38347266149461734           0.03146658337083985          0.33278087868855694          1.0000   
         C         C         1.0       0.37528244511527714           0.027659767533323443         0.3719840201698289 1.0000   
         C         C         1.0       0.47487080693074135           0.9928243618667322 0.41390051414945445          1.0000   
         C         C         1.0       0.47544617580442633           0.9510160905402394 0.39611495249675327          1.0000   
         C         C         1.0       0.5001808441328475  0.9449064202665145  0.36284740788789366          1.0000   
         C         C         1.0       0.5055763441863168  0.9096404353814881  0.3445810852694957 1.0000   
         C         C         1.0       0.48354485254764573           0.8792241542817087 0.35803609293637084          1.0000   
         C         C         1.0       0.4572312149996516  0.8848933384562493  0.3889016018721768 1.0000   
         C         C         1.0       0.4510832593995692  0.9207336680518017  0.4059355238071791 1.0000   
         C         C         1.0       0.5233949991956278  0.05026932215773816           0.39945992192648416          1.0000   
         C         C         1.0       0.5585123576149121  0.06712507707450599           0.3986401969360204 1.0000   
         C         C         1.0       0.5909641837397491  0.04620835563259207           0.40582426300413305          1.0000   
         C         C         1.0       0.5854229472769005  0.007719053902653705         0.41438567231494944          1.0000   
         C         C         1.0       0.5500499103730419  0.9928716374368441  0.4215161886312555 1.0000   
         C         C         1.0       0.5156510812889462  0.013481591160783069         0.4125540628370784 1.0000   
         C         C         1.0       0.6340557859807149  0.06443510066972591           0.40453751845938785          1.0000   
         C         C         1.0       0.6398886682022337  0.08231173449591256           0.2765443588235488 1.0000   
         C         C         1.0       0.6293344277763137  0.11162823904095509           0.302330254794071  1.0000   
         C         C         1.0       0.6275519686906507  0.10779385302612043           0.34218229777715437          1.0000   
         C         C         1.0       0.6351797445580979  0.0717033802339695  0.3585890791010654 1.0000   
         C         C         1.0       0.6417411419099217  0.04200620729790949           0.3320154157599169 1.0000   
         C         C         1.0       0.6446080730006236  0.047203334569518196         0.29263472929910334          1.0000   
         C         C         1.0       0.6697709692079679  0.0378837035919779  0.4242421124131135 1.0000   
         C         C         1.0       0.6663224533653583  0.020247522195185885         0.4604467087089421 1.0000   
         C         C         1.0       0.6945893587264703  0.994935915230291   0.47335382491366323          1.0000   
         C         C         1.0       0.7290150458426145  0.9899017337763212  0.45280796847035054          1.0000   
         C         C         1.0       0.7357551256690499  0.012774465799606727         0.41910790694871913          1.0000   
         C         C         1.0       0.7058452806688538  0.03490152613647113           0.40652832052713445          1.0000   
         C         C         1.0       0.6699550747257732  0.12915487443650586           0.42355712870746237          1.0000   
         C         C         1.0       0.6790730777452346  0.15641039581396488           0.45089811370643623          1.0000   
         C         C         1.0       0.6566505918402951  0.1608728488859117  0.48433441196416155          1.0000   
         C         C         1.0       0.6226337049941603  0.13860038246786432           0.48817843495139146          1.0000   
         C         C         1.0       0.6155307632692927  0.11079904605710977           0.46129568224506035          1.0000   
         C         C         1.0       0.6402128795105001  0.10317135890088425           0.42947517010114544          1.0000   
         H         H         1.0       0.39948858492693745           0.014041266978752853         0.4271513264520359 1.0000   
         H         H         1.0       0.48077572843280836           0.01814871557549269          0.3357424808608642 1.0000   
         H         H         1.0       0.4276413180942255  0.03823320151830645           0.2884706459766334 1.0000   
         H         H         1.0       0.3472146322587578  0.031019419455824426         0.38534644873931484          1.0000   
         H         H         1.0       0.5190950583550736  0.9675585505644532  0.35471931754557506          1.0000   
         H         H         1.0       0.5273062867926128  0.907971636635628   0.3235872363549855 1.0000   
         H         H         1.0       0.43957429987046515           0.8604339740174461 0.4007394344162151 1.0000   
         H         H         1.0       0.4285348703707087  0.9237341501276823  0.4282251528718051 1.0000   
         H         H         1.0       0.5011758175696451  0.06796542873726863           0.3954707163491655 1.0000   
         H         H         1.0       0.5594512796238427  0.09822255068182084           0.3918689393781939 1.0000   
         H         H         1.0       0.6125712417240746  0.9910094871683415  0.41470870712224567          1.0000   
         H         H         1.0       0.5487772765169651  0.9623340990858759  0.4289114823782842 1.0000   
         H         H         1.0       0.6279782016893737  0.14037645874894533           0.2912150672677958 1.0000   
         H         H         1.0       0.6145322517999542  0.13350676920592952           0.3601883151073602 1.0000   
         H         H         1.0       0.6437435799557454  0.013903757307581532         0.3451689358478251 1.0000   
         H         H         1.0       0.6537763102713403  0.023127903835950647         0.27254096501011654          1.0000   
         H         H         1.0       0.6384062854893298  0.02136715705139136           0.4754131887367752 1.0000   
         H         H         1.0       0.6901001998700667  0.9774597656564398  0.49907430165118594          1.0000   
         H         H         1.0       0.7638763766060389  0.011335322577541662         0.4042097994564363 1.0000   
         H         H         1.0       0.7105954268086386  0.052156999520684755         0.3799132305154654 1.0000   
         H         H         1.0       0.6901312032442661  0.12821530812751214           0.399044189561915  1.0000   
         H         H         1.0       0.7048505254534324  0.17456448579165684           0.4450147405949028 1.0000   
         H         H         1.0       0.6004790055256858  0.14189668839026437           0.5085618147511133 1.0000   
         H         H         1.0       0.5903872622177012  0.09290827564631399           0.465046563042048  1.0000   
         C         C         1.0       0.3192195444606153  0.914825213109093   0.40378964776352133          1.0000   
         C         C         1.0       0.290389666333286   0.9066419252228592  0.3758931941402438 1.0000   
         C         C         1.0       0.2855992908176663  0.8693872668430871  0.3628098548978382 1.0000   
         C         C         1.0       0.31088196079736397           0.8406309414866513 0.3714930411482161 1.0000   
         C         C         1.0       0.34019283713172116           0.8496963661968153 0.3987761983358561 1.0000   
         C         C         1.0       0.34128377823681066           0.8843473205076954 0.41722092366687746          1.0000   
         H         H         1.0       0.27602222625429895           0.9313156423543296 0.36287106928451823          1.0000   
         H         H         1.0       0.2643471540016551  0.8661744780657089  0.34253337625922853          1.0000   
         H         H         1.0       0.3630428640074955  0.8307235226108413  0.4046408874677766 1.0000   
         H         H         1.0       0.36325298321737104           0.8895709552341671 0.43894652440641485          1.0000   
         C         C         1.0       0.3642202824048891  0.8368313931587805  0.3032530924464705 1.0000   
         C         C         1.0       0.35640521122547464           0.8064701425713368 0.32747078596376933          1.0000   
         C         C         1.0       0.3879389450042924  0.7837827568379255  0.33942648445479506          1.0000   
         C         C         1.0       0.42370893299433676           0.7902541209862427 0.32602862110487785          1.0000   
         C         C         1.0       0.43119041875632363           0.8214037026349436 0.30348088069310164          1.0000   
         C         C         1.0       0.4017608409019307  0.8462382044788704  0.2926052184360808 1.0000   
         C         C         1.0       0.3150173991913229  0.8007369277700901  0.3467087471228417 1.0000   
         C         C         1.0       0.2806961275850537  0.794992292128496   0.31528463184457006          1.0000   
         C         C         1.0       0.2880343411146251  0.7825405029278621  0.27740782659467106          1.0000   
         C         C         1.0       0.2597392360026864  0.7789468628983948  0.2495175873695666 1.0000   
         C         C         1.0       0.22140121461946366           0.7827973247462731 0.258888511804889  1.0000   
         C         C         1.0       0.21290406065599826           0.7933472254864737 0.2972915951006051 1.0000   
         C         C         1.0       0.2422661751708052  0.7965725974886638  0.32429977972194973          1.0000   
         C         C         1.0       0.30548544638973935           0.7649270710064114 0.41031043411092444          1.0000   
         C         C         1.0       0.31342623735762043           0.7333322593942979 0.4337766946890881 1.0000   
         C         C         1.0       0.3239871277939049  0.6984812129623079  0.4187080573038402 1.0000   
         C         C         1.0       0.32125933041857563           0.6957350355470577 0.3782910408791519 1.0000   
         C         C         1.0       0.31811702905445227           0.7269371273400952 0.3541008545265489 1.0000   
         C         C         1.0       0.3131431872744472  0.7619456370321438  0.3703373336971062 1.0000   
         C         C         1.0       0.35131906773229266           0.6682780520696265 0.440112268866563  1.0000   
         C         C         1.0       0.4638855140674322  0.6941283894489578  0.3849240250249326 1.0000   
         C         C         1.0       0.44504094555487017           0.7200174220371509 0.40880275893409324          1.0000   
         C         C         1.0       0.40947666389221477           0.7127686238484924 0.4234192095211688 1.0000   
         C         C         1.0       0.39371551125739024           0.6759372132903797 0.41953417211555066          1.0000   
         C         C         1.0       0.4135777551501732  0.6485726733797418  0.39636310088371024          1.0000   
         C         C         1.0       0.4486120474353098  0.6573570814341007  0.37965302562027675          1.0000   
         C         C         1.0       0.33728006997220306           0.6231017826153559 0.43602271969581585          1.0000   
         C         C         1.0       0.30488446372551137           0.6109253549861752 0.41629806271736347          1.0000   
         C         C         1.0       0.29823918949226397           0.5716898551762127 0.4121742135035592 1.0000   
         C         C         1.0       0.3218978994197915  0.5450019638449983  0.4295760003871364 1.0000   
         C         C         1.0       0.35638210520829733           0.5577404132706779 0.44454122569743015          1.0000   
         C         C         1.0       0.36234802727927035           0.5963901702411133 0.45125232370370993          1.0000   
         C         C         1.0       0.38286931813315467           0.6890391579571533 0.5087563405601229 1.0000   
         C         C         1.0       0.37928304882155134           0.7006791311723707 0.5471589285699687 1.0000   
         C         C         1.0       0.3435812010434313  0.6982758584409205  0.5668726692023515 1.0000   
         C         C         1.0       0.31380196421938994           0.6831981251194773 0.5448455206986136 1.0000   
         C         C         1.0       0.3167755952199721  0.675750726436161   0.5059693943705332 1.0000   
         C         C         1.0       0.35082168751901405           0.6772422472810562 0.4866345422136326 1.0000   
         H         H         1.0       0.34081860918077994           0.8557902324225195 0.2928705868750633 1.0000   
         H         H         1.0       0.38692689393937146           0.7588820489708893 0.36019552297563434          1.0000   
         H         H         1.0       0.44694843629041303           0.7707023232007552 0.3328309360759915 1.0000   
         H         H         1.0       0.4087049777071013  0.8714934847110717  0.27375474561164315          1.0000   
         H         H         1.0       0.3187613166458764  0.7810031100856618  0.26593906850951826          1.0000   
         H         H         1.0       0.27051970898375916           0.7674360815854225 0.2223041491415002 1.0000   
         H         H         1.0       0.18312284505377247           0.7973731938765769 0.3034877057288275 1.0000   
         H         H         1.0       0.23621180917694298           0.8046993166184178 0.3525325529068607 1.0000   
         H         H         1.0       0.2944025299475184  0.7902214957112591  0.4250260596128323 1.0000   
         H         H         1.0       0.3103847627537874  0.7397748672506362  0.46434843210189375          1.0000   
         H         H         1.0       0.33005162667348464           0.6683176958500011 0.36197965098001755          1.0000   
         H         H         1.0       0.3208881497443705  0.7231711319646704  0.3241018418638559 1.0000   
         H         H         1.0       0.4592427006407886  0.7470206968187006  0.4157872008075964 1.0000   
         H         H         1.0       0.39863351766299265           0.730551205559153  0.4464655202567901 1.0000   
         H         H         1.0       0.400784720107959   0.62202074468077    0.3873106707388736 1.0000   
         H         H         1.0       0.4614326408615498  0.6351375279853287  0.35968076372757113          1.0000   
         H         H         1.0       0.2885531058026858  0.6327205666704485  0.40121099508497815          1.0000   
         H         H         1.0       0.27191248050037153           0.5606966512753598 0.3959738674061373 1.0000   
         H         H         1.0       0.3792461536602804  0.5365367690643206  0.4523140187835865 1.0000   
         H         H         1.0       0.38994370821646857           0.6052495402169351 0.4612125493297603 1.0000   
         H         H         1.0       0.41184468537357327           0.6863949569380839 0.496526332144427  1.0000   
         H         H         1.0       0.4040133885413293  0.7088697434663885  0.5624984564754323 1.0000   
         H         H         1.0       0.2865343042691271  0.6799153147599246  0.5593208994003727 1.0000   
         H         H         1.0       0.29374191132229843           0.6607125106090659 0.4905465294226602 1.0000   
         C         C         1.0       0.8375965098041978  0.8551799260381575  0.05596722032159329          1.0000   
         C         C         1.0       0.8465310419935916  0.839415256987419   0.09030631872886019          1.0000   
         C         C         1.0       0.8707469404539913  0.8583057018334312  0.11528789454880939          1.0000   
         C         C         1.0       0.886797800764077   0.8944545555834388  0.10486040792488338          1.0000   
         C         C         1.0       0.8763310377018964  0.9111579836792916  0.06862463397798813          1.0000   
         C         C         1.0       0.8537140299067576  0.8909646635626457  0.04533630348398798          1.0000   
         H         H         1.0       0.836090681142995   0.8113798074771478  0.09869230715633748          1.0000   
         H         H         1.0       0.8783515807170519  0.850670026118377   0.14392732853598544          1.0000   
         H         H         1.0       0.884774310552307   0.9397847560257033  0.057404307519584474         1.0000   
         H         H         1.0       0.8514320316782618  0.9049462603890354  0.015930095358770213         1.0000   
         C         C         1.0       0.9598482679325425  0.947511309262379   0.07655087061319898          1.0000   
         C         C         1.0       0.9425047996026427  0.9516489935164265  0.11177716510206426          1.0000   
         C         C         1.0       0.9540644894758012  0.9862993735308545  0.13407166029718587          1.0000   
         C         C         1.0       0.9738931279431275  0.015184753170836895         0.11622029515032661          1.0000   
         C         C         1.0       0.9845843174576605  0.011156181653877884         0.07788573254923614          1.0000   
         C         C         1.0       0.9795581554257949  0.9754581261758483  0.059325760278051476         1.0000   
         C         C         1.0       0.9162204497319841  0.9204844086341714  0.13205017299931754          1.0000   
         C         C         1.0       0.9504243527555474  0.895208834791499   0.14685432830085232          1.0000   
         C         C         1.0       0.9695917024618183  0.9067715403838785  0.18181988441533337          1.0000   
         C         C         1.0       0.0036961350688560213         0.8889410496474416 0.19177244078810074          1.0000   
         C         C         1.0       0.020999135731275986          0.8630309248237805 0.1668686852183774 1.0000   
         C         C         1.0       0.0021791747766344294         0.8498000693809032 0.13295462042870265          1.0000   
         C         C         1.0       0.9683862156134508  0.8679585733059957  0.12196054451878924          1.0000   
         C         C         1.0       0.8668305630786177  0.9677898031471585  0.1553771505637313 1.0000   
         C         C         1.0       0.8367207034254694  0.9814421590384904  0.17846012511722503          1.0000   
         C         C         1.0       0.8234609676886048  0.9588952562523255  0.21000775794285992          1.0000   
         C         C         1.0       0.8438781036878535  0.9251387610513101  0.21807307667616735          1.0000   
         C         C         1.0       0.8751009152417425  0.9124289069466085  0.19536505755190586          1.0000   
         C         C         1.0       0.8865843138393518  0.9343528106504347  0.16352156575149798          1.0000   
         C         C         1.0       0.7884543524920179  0.9721195092396634  0.2366685155206552 1.0000   
         C         C         1.0       0.8470778069201067  0.9881964027357649  0.35074289289388766          1.0000   
         C         C         1.0       0.8558274526959367  0.010783304218840106         0.3190596966168764 1.0000   
         C         C         1.0       0.8394399275490946  0.0033868998821797724        0.2834167180722475 1.0000   
         C         C         1.0       0.8123884318990858  0.973311197607313   0.2793144769525605 1.0000   
         C         C         1.0       0.8043053554326866  0.9514240530529405  0.31222166036634513          1.0000   
         C         C         1.0       0.8193939188402994  0.9596614925704982  0.34709486747408286          1.0000   
         C         C         1.0       0.7530311040019798  0.9430857080221847  0.2326664381479281 1.0000   
         C         C         1.0       0.7482717845467823  0.9186384962388653  0.2008515785823998 1.0000   
         C         C         1.0       0.7153480591505944  0.8941628017870319  0.19826992654696013          1.0000   
         C         C         1.0       0.6858300923708712  0.8976307274360952  0.22397438362829253          1.0000   
         C         C         1.0       0.6883729312949743  0.9239493721559566  0.2534292573022541 1.0000   
         C         C         1.0       0.7202554513199854  0.9460207846967542  0.25822475298149317          1.0000   
         C         C         1.0       0.7528475691503521  0.035099493767242196         0.2617929574478641 1.0000   
         C         C         1.0       0.7289817122678757  0.0660646777866718  0.256028973674911  1.0000   
         C         C         1.0       0.7125469443231969  0.07276290294465282           0.22049607329558799          1.0000   
         C         C         1.0       0.723863547694156   0.050919455503284805         0.18951107605750242          1.0000   
         C         C         1.0       0.7514589121226791  0.02273791560768501           0.19293337608186942          1.0000   
         C         C         1.0       0.7649538686850766  0.013369018363375229         0.230262805002666  1.0000   
         H         H         1.0       0.9541205077701875  0.9214632369392641  0.05835776583366159          1.0000   
         H         H         1.0       0.9481405807011166  0.99015054837244    0.16518637926307345          1.0000   
         H         H         1.0       0.9801782986587042  0.04123786055301659           0.1318486183407499 1.0000   
         H         H         1.0       0.984403986107872   0.9740898982447462  0.028670514043191764         1.0000   
         H         H         1.0       0.9577768789403117  0.9252454864328602  0.2039232271988873 1.0000   
         H         H         1.0       0.016578788558372803          0.8957063567194822 0.2196100865652846 1.0000   
         H         H         1.0       0.01768126065760023           0.8312650992334867 0.1133813950955107 1.0000   
         H         H         1.0       0.9530273211523511  0.8594845265730786  0.09846516499997215          1.0000   
         H         H         1.0       0.8727690340515891  0.9825630344531806  0.12766869215419208          1.0000   
         H         H         1.0       0.8214873651871544  0.007626266883997257         0.17170724086478242          1.0000   
         H         H         1.0       0.8344552993129813  0.9077442415366378  0.2426290991973419 1.0000   
         H         H         1.0       0.8899182385522778  0.8872589208758611  0.20283627742286495          1.0000   
         H         H         1.0       0.8766003583540142  0.03322035601312012           0.32017024113854836          1.0000   
         H         H         1.0       0.8495365840109892  0.02083567964351607           0.2616209236521739 1.0000   
         H         H         1.0       0.7838054362796506  0.9289992950062226  0.3120562320589386 1.0000   
         H         H         1.0       0.8100301662683832  0.9393911524900826  0.36943173326512996          1.0000   
         H         H         1.0       0.7703030889992666  0.9185593809773445  0.17723732032572065          1.0000   
         H         H         1.0       0.7089396876849661  0.8803015892084906  0.1704764693797588 1.0000   
         H         H         1.0       0.6612526388152294  0.9292037506855002  0.26898775294976174          1.0000   
         H         H         1.0       0.7172775630599884  0.9670781031375979  0.2830987271201268 1.0000   
         H         H         1.0       0.7607534620264494  0.029957547618872482         0.29289520936638513          1.0000   
         H         H         1.0       0.7244630678984847  0.08164722715054107           0.2832802792376077 1.0000   
         H         H         1.0       0.7078250955228791  0.054435529118256554         0.16230938862935226          1.0000   
         H         H         1.0       0.7566501189951209  0.003081321131804593         0.16677213397834548          1.0000   
         C         C         1.0       0.9106953761528402  0.988039948549192   0.800267829977224  1.0000   
         C         C         1.0       0.8959534024840728  0.004333545840994768         0.8338593230950743 1.0000   
         C         C         1.0       0.9148625464261819  0.032582574220258786         0.8515260684394685 1.0000   
         C         C         1.0       0.9523576068289887  0.04513606363315237           0.8408305775247165 1.0000   
         C         C         1.0       0.9671990948215483  0.02650333511623648           0.8084521146640318 1.0000   
         C         C         1.0       0.9469208831894671  0.9980052295303242  0.7891960446678065 1.0000   
         H         H         1.0       0.8669336852548573  0.9956314358404664  0.8412996178693205 1.0000   
         H         H         1.0       0.9002766782820779  0.04709478928426525           0.876594182831026  1.0000   
         H         H         1.0       0.9967562911613722  0.03503884490376086           0.7984247309307311 1.0000   
         H         H         1.0       0.9605986122847494  0.9901519028134094  0.76289414089405   1.0000   
         C         C         1.0       0.03788106487300369           0.02596997401478207          0.8730709678399683 1.0000   
         C         C         1.0       0.02397453824340956           0.06449994762956068          0.8700365897888287 1.0000   
         C         C         1.0       0.05346894556630577           0.09081884961627651          0.872873092375956  1.0000   
         C         C         1.0       0.09178051119759956           0.0812846005800214 0.8754177346383184 1.0000   
         C         C         1.0       0.10320499561494012           0.044416662251533845         0.881459587490551  1.0000   
         C         C         1.0       0.07511572209091133           0.016349345619344202         0.8810197101410769 1.0000   
         C         C         1.0       0.9791789933946022  0.07565073030305247           0.8646870428389515 1.0000   
         C         C         1.0       0.9685166676768486  0.0757109609308042  0.9109151249677875 1.0000   
         C         C         1.0       0.97073510020172    0.10881800207463144           0.93382819557824   1.0000   
         C         C         1.0       0.9718141259826006  0.10722499096939098           0.9745533822094774 1.0000   
         C         C         1.0       0.9669888251300719  0.07094435425047374           0.9924386223200024 1.0000   
         C         C         1.0       0.9605149601906978  0.03904439700863693           0.9681772330588874 1.0000   
         C         C         1.0       0.9589928673311157  0.0409949466572761  0.9286515861666718 1.0000   
         C         C         1.0       0.9951741424554649  0.12687008889205798           0.811190854265867  1.0000   
         C         C         1.0       0.9892657562604776  0.16197316306246343           0.7939889743864829 1.0000   
         C         C         1.0       0.9600497249358495  0.1858398501455555  0.8064095738145749 1.0000   
         C         C         1.0       0.93055660278792    0.1696091526739319  0.8285147058101311 1.0000   
         C         C         1.0       0.9380500900034827  0.13578174167914936           0.8487916699448372 1.0000   
         C         C         1.0       0.9703051779495036  0.11378111173889693           0.8393948744899843 1.0000   
         C         C         1.0       0.9671692203765593  0.23130380954779647           0.8094286712391316 1.0000   
         C         C         1.0       0.9857516747483079  0.2267940653675045  0.935650887222173  1.0000   
         C         C         1.0       0.015569772959916017          0.21611880624945715          0.9094926525168038 1.0000   
         C         C         1.0       0.009831406752420113          0.2196490122570552 0.8707251256765357 1.0000   
         C         C         1.0       0.9760279903540308  0.23571280772047265           0.8552892552566626 1.0000   
         C         C         1.0       0.9475583372946058  0.24836666976182142           0.8824269943833101 1.0000   
         C         C         1.0       0.953278252612285   0.24433911583137613           0.922083192140482  1.0000   
         C         C         1.0       0.9312157420940556  0.2567733161345317  0.7967875118685684 1.0000   
         C         C         1.0       0.9015909428511925  0.24278442472571918           0.774694311568926  1.0000   
         C         C         1.0       0.8693452059159403  0.26432123547085146           0.7688507201494147 1.0000   
         C         C         1.0       0.867880178014087   0.3033714840106861  0.7792785773850031 1.0000   
         C         C         1.0       0.9008066362361035  0.32060028452937045           0.7945094258200706 1.0000   
         C         C         1.0       0.9318274695254917  0.29692157779737083           0.8025740967930464 1.0000   
         C         C         1.0       0.026729355692748813          0.27804755196261854          0.8004292373824407 1.0000   
         C         C         1.0       0.05624164837347401           0.2916662682530616 0.7792661599100491 1.0000   
         C         C         1.0       0.06214356966872736           0.27986335916038296          0.7412770614411294 1.0000   
         C         C         1.0       0.036971897068229786          0.25575129664081536          0.7237775526883974 1.0000   
         C         C         1.0       0.008015149618127548          0.23822687407220516          0.7459590460113686 1.0000   
         C         C         1.0       0.002007100337304557          0.24912937586980433          0.783546219641893  1.0000   
         H         H         1.0       0.018599630988531235          0.0009144899134745366        0.8743494811063245 1.0000   
         H         H         1.0       0.043341104687813825          0.12077089374564576          0.8763031045530053 1.0000   
         H         H         1.0       0.11382871431646646           0.102978669579187  0.8773218094055955 1.0000   
         H         H         1.0       0.0786135345733665  0.9850149333990943  0.8863380780089424 1.0000   
         H         H         1.0       0.9772478444510141  0.13831232803045412           0.922874535290272  1.0000   
         H         H         1.0       0.9786255585128961  0.1299210289835242  0.9922855335180493 1.0000   
         H         H         1.0       0.9522173761715422  0.009839707664655029         0.9784981431851116 1.0000   
         H         H         1.0       0.9572743736284882  0.013630482952715406         0.9106961980978063 1.0000   
         H         H         1.0       0.02180067292249599           0.11010217130715794          0.8023219132918114 1.0000   
         H         H         1.0       0.012157293287961002          0.1711227094627638 0.7747031583551942 1.0000   
         H         H         1.0       0.9063190427704731  0.18862879453174733           0.8371925941017343 1.0000   
         H         H         1.0       0.9185429202880561  0.1259907142454748  0.8720073375211665 1.0000   
         H         H         1.0       0.04213455972393931           0.2055392023120826 0.9224571814229393 1.0000   
         H         H         1.0       0.031315227821350655          0.20903429083140393          0.8494839660444014 1.0000   
         H         H         1.0       0.9205538963495845  0.26150706035065224           0.873407693202803  1.0000   
         H         H         1.0       0.9310721118731469  0.25106429932748314           0.9425416971222248 1.0000   
         H         H         1.0       0.902214592581205   0.21341419412081292           0.7675760376896317 1.0000   
         H         H         1.0       0.8444813578322445  0.2512039740225145  0.7568461004749851 1.0000   
         H         H         1.0       0.9018046859718674  0.351295699446667   0.796422151371278  1.0000   
         H         H         1.0       0.9557864817559225  0.3121739765567889  0.815367401447575  1.0000   
         H         H         1.0       0.02394037676525662           0.28963001241689385          0.8302671934345698 1.0000   
         H         H         1.0       0.07227823074065598           0.31549642422008667          0.7921103752755454 1.0000   
         H         H         1.0       0.03852796564374317           0.24903476555484286          0.6918882960974595 1.0000   
         H         H         1.0       0.9909404896738718  0.21711647405967027           0.7316036927876026 1.0000   
         C         C         1.0       0.00768314734830966           0.8324711375952769 0.9242780413513938 1.0000   
         C         C         1.0       0.02999140439384873           0.86090497738008   0.9091874132925974 1.0000   
         C         C         1.0       0.06319550222524728           0.8712488104018632 0.926440939167303  1.0000   
         C         C         1.0       0.07420136140216171           0.8570504881194407 0.9631421609158692 1.0000   
         C         C         1.0       0.051018793514745475          0.8290640701002834 0.9797903867867226 1.0000   
         C         C         1.0       0.017132713499140362          0.8181625924315106 0.9613135169139903 1.0000   
         H         H         1.0       0.020643800084735986          0.8749544174315037 0.8827040238423619 1.0000   
         H         H         1.0       0.08342976006304959           0.8894524107361205 0.9105130369504735 1.0000   
         H         H         1.0       0.06301409453195284           0.8129234991664919 0.00505522932522795          1.0000   
         H         H         1.0       0.9990014895721777  0.7964967831399259  0.9750267049228145 1.0000   
         C         C         1.0       0.07645606940608785           0.8908946287872614 0.04119756768373928          1.0000   
         C         C         1.0       0.11118846215122669           0.8765349996383941 0.026484437933905536         1.0000   
         C         C         1.0       0.13942989146298657           0.8679400224951043 0.053230742803538345         1.0000   
         C         C         1.0       0.13206394079897632           0.8655505510171121 0.09318281716638332          1.0000   
         C         C         1.0       0.09684388348520812           0.8808253271119402 0.10642530545668327          1.0000   
         C         C         1.0       0.06952308143009223           0.8924287434200373 0.08038067209676658          1.0000   
         C         C         1.0       0.1149211568281443  0.8688420644404926  0.9808474830541881 1.0000   
         C         C         1.0       0.12962274091423232           0.9108921669643847 0.9687402507386959 1.0000   
         C         C         1.0       0.16745117459962433           0.9189567365361333 0.957275649618201  1.0000   
         C         C         1.0       0.17804200531668557           0.9554643815146004 0.9433393106313133 1.0000   
         C         C         1.0       0.151544103690062   0.984259010013034   0.9442852308176897 1.0000   
         C         C         1.0       0.11641619194882402           0.9788898236663622 0.9615848075065963 1.0000   
         C         C         1.0       0.10523855731209886           0.942023977873851  0.9699953613449538 1.0000   
         C         C         1.0       0.15301023971628913           0.8040311051568    0.9813088005488669 1.0000   
         C         C         1.0       0.17438803548766968           0.7734884265240733 0.9667484353630923 1.0000   
         C         C         1.0       0.18445403126012794           0.7715019504102316 0.9263510239478219 1.0000   
         C         C         1.0       0.16686563016328537           0.8001309409445413 0.9037062788537278 1.0000   
         C         C         1.0       0.15208650054284156           0.8336679876340727 0.9205352460943029 1.0000   
         C         C         1.0       0.1417576627137449  0.8352592424512161  0.9602154619048283 1.0000   
         C         C         1.0       0.21439120129776817           0.7404200641433949 0.9092742377020251 1.0000   
         C         C         1.0       0.310115796835242   0.8215466040560824  0.8861266920545865 1.0000   
         C         C         1.0       0.3016688786382594  0.8070298297576933  0.9226141932828906 1.0000   
         C         C         1.0       0.27071414195793103           0.7831801621135599 0.9298221996885172 1.0000   
         C         C         1.0       0.24839554809043596           0.7707518408934668 0.8999218082372007 1.0000   
         C         C         1.0       0.25506202332311934           0.7874829149419662 0.8627455822266533 1.0000   
         C         C         1.0       0.285040732266178   0.8111142643501019  0.8567520444455049 1.0000   
         C         C         1.0       0.1991652105349974  0.715344171076553   0.873020161759184  1.0000   
         C         C         1.0       0.1606640493476336  0.7045529354168596  0.8689499861291942 1.0000   
         C         C         1.0       0.14950484401341466           0.6823465369982294 0.8378730364544503 1.0000   
         C         C         1.0       0.17463688197492583           0.668715875706446  0.8092119014153822 1.0000   
         C         C         1.0       0.2129193246408055  0.6793069271204965  0.8130644895096352 1.0000   
         C         C         1.0       0.22476551402453412           0.7033423287706911 0.8436265157994669 1.0000   
         C         C         1.0       0.2679738278725929  0.691904616833239   0.9342054193233293 1.0000   
         C         C         1.0       0.27965857406450656           0.6570255898418078 0.9506010439101467 1.0000   
         C         C         1.0       0.25537156437130754           0.6381445192381789 0.9737605405424656 1.0000   
         C         C         1.0       0.2183728815245444  0.6499068912457291  0.9766815421202011 1.0000   
         C         C         1.0       0.20405824546883905           0.6813652993115136 0.9568806096138571 1.0000   
         C         C         1.0       0.22950809392829113           0.703974908519515  0.9356573779088474 1.0000   
         H         H         1.0       0.0539901785649477  0.8991593653938633  0.021435439968924053         1.0000   
         H         H         1.0       0.16808500290654105           0.8612759961190799 0.04194376027267843          1.0000   
         H         H         1.0       0.1555041243509545  0.8571001066882767  0.11227497761746208          1.0000   
         H         H         1.0       0.042907043236531495          0.904622565432301  0.0931308067103418 1.0000   
         H         H         1.0       0.18861588772833793           0.8973386669146008 0.9521449829448073 1.0000   
         H         H         1.0       0.2063689526677055  0.9619387640379767  0.9312712992432233 1.0000   
         H         H         1.0       0.09700739228186461           0.002102311683681801         0.9656697832605542 1.0000   
         H         H         1.0       0.07541770928586322           0.9386278079376301 0.9811718589914958 1.0000   
         H         H         1.0       0.146397354606576   0.8011851668315891  0.011909762775778487         1.0000   
         H         H         1.0       0.18239177194537204           0.7524963367716914 0.9865277371614433 1.0000   
         H         H         1.0       0.1733030543377182  0.7978201346297804  0.8727741283585609 1.0000   
         H         H         1.0       0.14301960089931676           0.8545477302828028 0.8985679641906911 1.0000   
         H         H         1.0       0.32243676979780395           0.8151084147199311 0.9455695401114451 1.0000   
         H         H         1.0       0.26392622568861374           0.7726842772612607 0.9594590903050045 1.0000   
         H         H         1.0       0.23970879721979763           0.7798897811950963 0.8382526543928859 1.0000   
         H         H         1.0       0.2897573814963046  0.8245693409784193  0.8303938302964068 1.0000   
         H         H         1.0       0.13985918371281184           0.7186478305945434 0.8886384409114187 1.0000   
         H         H         1.0       0.11900945770904303           0.6740417650312798 0.8341516510016096 1.0000   
         H         H         1.0       0.23599151279541755           0.6677897090568722 0.7930292655453106 1.0000   
         H         H         1.0       0.2554709868672436  0.7097433814499862  0.8468942106282791 1.0000   
         H         H         1.0       0.2895049037773475  0.7045300716913729  0.9163641834109613 1.0000   
         H         H         1.0       0.3091961800289826  0.6483421782754734  0.9431405893212558 1.0000   
         H         H         1.0       0.19704388913296542           0.631780557995224  0.9905440200538341 1.0000   
         H         H         1.0       0.17328675739208188           0.6867290179102816 0.9549322408308126 1.0000   
         C         C         1.0       0.14589713403859061           0.032948245515977526         0.8868623099189664 1.0000   
         C         C         1.0       0.1642496282330035  0.02465772075431727           0.9276591116234991 1.0000   
         H         H         1.0       0.15114784042573892           0.00669879899339354          0.8680992929833161 1.0000   
         H         H         1.0       0.1621075550975759  0.05581982590408807           0.8709292853865607 1.0000   
         H         H         1.0       0.16014174175187268           0.048361537470776206         0.9497670959561615 1.0000   
         H         H         1.0       0.19686963654629186           0.02586989142145435          0.9216333024210925 1.0000   
         C         C         1.0       0.9957128371656806  0.04609558294796834           0.056675803245186396         1.0000   
         C         C         1.0       0.9610237662648086  0.06626220989268217           0.036992106748982234         1.0000   
         H         H         1.0       0.014818715133534388          0.06597837611280344          0.07412883824665872          1.0000   
         H         H         1.0       0.019172223856727566          0.037776395063986445         0.03556335598824156          1.0000   
         H         H         1.0       0.9566472907730504  0.09589039387814813           0.05078146491457125          1.0000   
         H         H         1.0       0.9322064264806887  0.05426248898752206           0.046196263849492825         1.0000   
         C         C         1.0       0.08945229946226685           0.8872189126625425 0.1502623285048028 1.0000   
         C         C         1.0       0.06531753114667471           0.8575316842322249 0.17280217207557969          1.0000   
         H         H         1.0       0.11803499634040393           0.8851106918058395 0.16318432802821836          1.0000   
         H         H         1.0       0.0818610664186723  0.9180661508259885  0.1564094055440557 1.0000   
         H         H         1.0       0.07816036457784992           0.8569250311774839 0.20234335885851928          1.0000   
         H         H         1.0       0.0726648065755422  0.8266785010359654  0.1673733566266713 1.0000   
         C         C         1.0       0.6822720248702124  0.10471578040929908           0.21729455232040804          1.0000   
         C         C         1.0       0.6416340830491798  0.09057135867852684           0.23282797736557237          1.0000   
         H         H         1.0       0.6825376696619367  0.11752533515587649           0.1880447644062416 1.0000   
         H         H         1.0       0.6914473065383153  0.12998643128714216           0.2369802272354532 1.0000   
         H         H         1.0       0.6295678464108027  0.06327339876861227           0.21785609344804605          1.0000   
         H         H         1.0       0.6186489647154686  0.11353743956619322           0.2274043587513373 1.0000   
         C         C         1.0       0.4933531445833246  0.8400136978992698  0.33653978051043826          1.0000   
         C         C         1.0       0.47236333035569267           0.83036118618492   0.2968206350311079 1.0000   
         H         H         1.0       0.523678884511632   0.835638578422517   0.33091579259081594          1.0000   
         H         H         1.0       0.48868040039524285           0.8178557036608894 0.3563863545934492 1.0000   
         H         H         1.0       0.4858641246106109  0.8037276018303618  0.2810930254592047 1.0000   
         H         H         1.0       0.4794838186722205  0.8551016467862762  0.2764406311546714 1.0000   
         C         C         1.0       0.34857852043882787           0.884566789210983  0.8862827359534922 1.0000   
         C         C         1.0       0.3496847908315743  0.8404116019110057  0.8785834526479814 1.0000   
         H         H         1.0       0.32757402913339384           0.8982897389709068 0.8661721809395152 1.0000   
         H         H         1.0       0.37619700279191426           0.8963135984390046 0.8765520245074898 1.0000   
         H         H         1.0       0.3575119596287364  0.8380535557918422  0.8475681052767752 1.0000   
         H         H         1.0       0.37272152529720504           0.8261749842793135 0.8963442946632804 1.0000   
         C         C         1.0       0.3401808728356241  0.985562309731339   0.2938803392255962 1.0000   
         C         C         1.0       0.35147384291912315           0.027329566822204  0.30315043082401977          1.0000   
         H         H         1.0       0.3326429002358215  0.9704352713378628  0.32269895183788133          1.0000   
         H         H         1.0       0.3676281963360828  0.9715776897045639  0.2871351119149631 1.0000   
         H         H         1.0       0.3256317747686551  0.04276069218448564           0.3127749537434747 1.0000   
         H         H         1.0       0.35540824634452506           0.04513655631231028          0.2757710257631247 1.0000   
         C         C         1.0       0.19737843994913068           0.7913842769508198 0.18528091999020893          1.0000   
         C         C         1.0       0.19079571819644822           0.7770477626605298 0.22836716729797704          1.0000   
         H         H         1.0       0.22047452500497566           0.7727993972043014 0.17262979671745174          1.0000   
         H         H         1.0       0.16933705656572637           0.7876520732102077 0.16740806473364447          1.0000   
         H         H         1.0       0.1890220720958459  0.7453997385084883  0.22415496952934433          1.0000   
         H         H         1.0       0.16110885328552105           0.7815227869624339 0.23814133437554763          1.0000   
         C         C         1.0       0.5375450649566265  0.7096143854390589  0.39326891703463107          1.0000   
         C         C         1.0       0.5020433230366146  0.7075178710053565  0.3640821748912733 1.0000   
         H         H         1.0       0.5298703787083994  0.7299170968453864  0.41734856116776164          1.0000   
         H         H         1.0       0.5614738724678306  0.724568321233225   0.3767779696079796 1.0000   
         H         H         1.0       0.509009528844124   0.685944906278475   0.3399586244081287 1.0000   
         H         H         1.0       0.49823271075207604           0.7343401431277791 0.3485458226362371 1.0000   
         C         C         1.0       0.09384183470119467           0.2987958183235611 0.7197922374221833 1.0000   
         C         C         1.0       0.08250728892066506           0.32958559928064113          0.6914324937672035 1.0000   
         H         H         1.0       0.11391443466335205           0.31378518068908207          0.7400732832923081 1.0000   
         H         H         1.0       0.10955728503212891           0.2756748713463551 0.7075739002133644 1.0000   
         H         H         1.0       0.06377868991111257           0.3163111420553376 0.6704432516512534 1.0000   
         H         H         1.0       0.10938267123196876           0.34004607261182557          0.6771450973196377 1.0000   
         C         C         1.0       0.8203901465969247  0.5860620849871893  0.5982122885081596 1.0000   
         C         C         1.0       0.8121516886389474  0.5914808680141378  0.5533342725411716 1.0000   
         H         H         1.0       0.7947406362281563  0.5720242225870307  0.6099050520172967 1.0000   
         H         H         1.0       0.8207140954529994  0.6158569953808706  0.6093670688500176 1.0000   
         H         H         1.0       0.8376830496641986  0.6026989165295761  0.538039377619624  1.0000   
         H         H         1.0       0.7927106212695628  0.6164822619606881  0.5541271784369123 1.0000   
         C         C         1.0       0.6694625004034385  0.19333662987457187           0.5135480790451844 1.0000   
         C         C         1.0       0.6884460635817087  0.17747542439415487           0.550055026880167  1.0000   
         H         H         1.0       0.6898465505862259  0.21362469313573268           0.4977183733675179 1.0000   
         H         H         1.0       0.6413393291186543  0.20929253238380302           0.5221464219665048 1.0000   
         H         H         1.0       0.6707558841550008  0.15247886486997578           0.558716104487241  1.0000   
         H         H         1.0       0.6875046112208973  0.20038341373901833           0.5733694016134186 1.0000   
         C         C         1.0       0.8883127657940125  0.02456807492610613           0.40185097560956773          1.0000   
         C         C         1.0       0.8719491817130148  0.986052181415715   0.3867016916401013 1.0000   
         H         H         1.0       0.8864450644914703  0.05084759008660056           0.3815143446543422 1.0000   
         H         H         1.0       0.9188044963317206  0.017270171790281452         0.40339740310878436          1.0000   
         H         H         1.0       0.8968670262371018  0.9663523167646947  0.3781036982190513 1.0000   
         H         H         1.0       0.8543517932376583  0.971073574330824   0.4092868317823562 1.0000   
         C         C         1.0       0.013294980766217046          0.3394045755371559 0.5836496927988847 1.0000   
         C         C         1.0       0.02484259748522577           0.3823097905788319 0.5753622593498126 1.0000   
         H         H         1.0       0.01784768680037052           0.3325230782748754 0.6153766070472735 1.0000   
         H         H         1.0       0.035823856873815396          0.317914319516753  0.5713020542064077 1.0000   
         H         H         1.0       0.021337704183420403          0.38333838593411745          0.5427611736279632 1.0000   
         H         H         1.0       0.05535971954844987           0.384162334418617  0.5775338132562012 1.0000   
         C         C         1.0       0.7235524918508396  0.36207504120081485           0.6099073261509561 1.0000   
         C         C         1.0       0.6949247933325116  0.3558641714256022  0.5762733905237359 1.0000   
         H         H         1.0       0.7063522022927387  0.358000577596391   0.6378315474295199 1.0000   
         H         H         1.0       0.7304702726703464  0.39246105871238446           0.613978072635639  1.0000   
         H         H         1.0       0.6654722592503232  0.35999929318260315           0.5912918925625666 1.0000   
         H         H         1.0       0.6935390571984471  0.3275580778427922  0.5616640450915724 1.0000   
         C         C         1.0       0.3377606126187618  0.7146144372573846  0.6081295958434083 1.0000   
         C         C         1.0       0.318500337209984   0.6895936940286069  0.6390910636843706 1.0000   
         H         H         1.0       0.3670882376959899  0.717417429031968   0.6187316971246694 1.0000   
         H         H         1.0       0.3268434790224593  0.7447333935691419  0.6104464453741565 1.0000   
         H         H         1.0       0.28734300498429244           0.6826565880373537 0.6289886433777073 1.0000   
         H         H         1.0       0.31764223322430307           0.7071456099379596 0.6665448058382918 1.0000   
         C         C         1.0       0.5711378268680445  0.5239492179224451  0.6447351895397951 1.0000   
         C         C         1.0       0.5891002121665252  0.4980597106078137  0.6109750406763645 1.0000   
         H         H         1.0       0.5845403934543065  0.5540422057618849  0.6444417723886574 1.0000   
         H         H         1.0       0.5783317798606918  0.5123445628337864  0.6728800917186726 1.0000   
         H         H         1.0       0.6201073223043082  0.49514708232907234           0.6148172593435441 1.0000   
         H         H         1.0       0.5765766458420847  0.4676390240074935  0.6160492622360819 1.0000   
         C         C         1.0       0.37615284895180223           0.8487354181954715 0.17985785209195226          1.0000   
         C         C         1.0       0.3450908622818712  0.8238125265886455  0.19812619442155585          1.0000   
         H         H         1.0       0.3986210431910867  0.8315098562777424  0.16573743105038632          1.0000   
         H         H         1.0       0.39075405225819737           0.864901183546112  0.20269857411950792          1.0000   
         H         H         1.0       0.3168594863073417  0.8346082691600585  0.18759383520624434          1.0000   
         H         H         1.0       0.3455077683236226  0.8269884180455249  0.23012448581302627          1.0000   
         C         C         1.0       0.26857100970281644           0.6030391485773177 0.9974975459652282 1.0000   
         C         C         1.0       0.31281543534244804           0.5974078728722813 0.0033877836066014133        1.0000   
         H         H         1.0       0.2544539776088078  0.602104781564642   0.029655112545364792         1.0000   
         H         H         1.0       0.2549392145449465  0.5765253509470571  0.9848816190589205 1.0000   
         H         H         1.0       0.32507591179832024           0.5918826731945221 0.9747296647452264 1.0000   
         H         H         1.0       0.319296944628292   0.5693626745796065  0.016164089316065278         1.0000   
         C         C         1.0       0.5366678876433487  0.6648320858451385  0.9164310165549363 1.0000   
         C         C         1.0       0.4972035102191633  0.6769439063452932  0.9009681471348155 1.0000   
         H         H         1.0       0.5547744172274197  0.6906568602369265  0.9225066831072033 1.0000   
         H         H         1.0       0.5537867979043721  0.6507650088582916  0.8914842536056206 1.0000   
         H         H         1.0       0.5030208159453233  0.7006681632413224  0.8805440719553419 1.0000   
         H         H         1.0       0.48261688767936783           0.6916109000769487 0.925216113045064  1.0000   
         C         C         1.0       0.09558832361181224           0.5101979707545345 0.9335766433086577 1.0000   
         C         C         1.0       0.08473195295882507           0.5046690094251576 0.9774602292839412 1.0000   
         H         H         1.0       0.09668844665507415           0.5422215788069205 0.9247556862001781 1.0000   
         H         H         1.0       0.12526578494807206           0.5002010210498345 0.9281750490068359 1.0000   
         H         H         1.0       0.05320395777469855           0.5049610754243183 0.9807007941257269 1.0000   
         H         H         1.0       0.09308763591673386           0.529594443110116  0.9967723985279079 1.0000   
         C         C         1.0       0.031110424528785652          0.21025338490047774          0.9960433437039891 1.0000   
         C         C         1.0       0.9886474362915533  0.21914462795785955           0.9812405169625195 1.0000   
         H         H         1.0       0.02614152343648768           0.20234972528615527          0.02635283631893892          1.0000   
         H         H         1.0       0.04389733868229451           0.18397774055079455          0.9842233494696421 1.0000   
         H         H         1.0       0.9742065976893411  0.24495337767849518           0.9962725774787603 1.0000   
         H         H         1.0       0.9695231028320598  0.19379897686498945           0.9868630486621655 1.0000   
         C         C         1.0       0.3643979356973968  0.45904908767815594           0.9839483942209505 1.0000   
         C         C         1.0       0.3956145724830548  0.4838481767208795  0.9635497576582952 1.0000   
         H         H         1.0       0.3781599384379091  0.4332233664620304  0.994589142394042  1.0000   
         H         H         1.0       0.35247679445849295           0.4753077439985552 0.0093209663760212 1.0000   
         H         H         1.0       0.3826320688772946  0.5053811075405089  0.9433422671631548 1.0000   
         H         H         1.0       0.4188028749161339  0.4674296382667648  0.9484605508503484 1.0000   
         C         C         1.0       0.20491515202967894           0.5751935156759355 0.8447341302036414 1.0000   
         C         C         1.0       0.2285634268166937  0.5970370277500853  0.8770776685289724 1.0000   
         H         H         1.0       0.2145157869604774  0.5842479829960002  0.8146510698676559 1.0000   
         H         H         1.0       0.17322631565040478           0.5804321595440523 0.843844696585901  1.0000   
         H         H         1.0       0.21674868834622407           0.5884239381719314 0.9061561562812263 1.0000   
         H         H         1.0       0.22087282089615343           0.6278948494239454 0.8766492105328326 1.0000   
         C         C         1.0       0.3854944170431214  0.021268989859208887         0.5888290197100029 1.0000   
         C         C         1.0       0.4288738981674633  0.02565399445217076           0.5769877824319712 1.0000   
         H         H         1.0       0.3844669882163238  0.014617771374032307         0.6197908333035193 1.0000   
         H         H         1.0       0.3778847186364208  0.9947069240831791  0.5728247863858457 1.0000   
         H         H         1.0       0.4434337933387233  0.0032416820789553658        0.5941010352270459 1.0000   
         H         H         1.0       0.44209590145207867           0.05132923814699164          0.5912324215081295 1.0000   
         C         C         1.0       0.306078777180077   0.4290420512899689  0.5670718637440589 1.0000   
         C         C         1.0       0.3272390847244398  0.39203002229402667           0.5554458799586107 1.0000   
         H         H         1.0       0.28280858207952125           0.42153497952806507          0.5885281325564856 1.0000   
         H         H         1.0       0.29503438199339305           0.44365038880696667          0.5414334166430531 1.0000   
         H         H         1.0       0.3398867394419864  0.37750141866550113           0.5811887933030949 1.0000   
         H         H         1.0       0.3514551548488654  0.3980136175328754  0.53776812993637   1.0000   
         C         C         1.0       0.0419652148636902  0.6843864702522594  0.5958520290650239 1.0000   
         C         C         1.0       0.0546171019680064  0.6577547529288075  0.6309767015629345 1.0000   
         H         H         1.0       0.01514880280676012           0.7024092201848313 0.6017723442094324 1.0000   
         H         H         1.0       0.0653165867643446  0.7055629257565957  0.5895365300600269 1.0000   
         H         H         1.0       0.053792662621860554          0.6739205621730037 0.657013900144982  1.0000   
         H         H         1.0       0.08576203440222119           0.6491983313625654 0.6269693735823687 1.0000   
         C         C         1.0       0.05558017228814238           0.3249846896292381 0.4371328107022351 1.0000   
         C         C         1.0       0.06540608776179768           0.30828957374265503          0.4791304724216312 1.0000   
         H         H         1.0       0.02471699077556222           0.32767091930117526          0.43153605298402337          1.0000   
         H         H         1.0       0.06388319813439858           0.30276809190185777          0.41664100453136227          1.0000   
         H         H         1.0       0.057826189530783   0.32725957895479846           0.5034049666440252 1.0000   
         H         H         1.0       0.04948282533626558           0.2815779990127453 0.4857763227551713 1.0000   
         C         C         1.0       0.31681704816505984           0.5006605819352191 0.42499450391144084          1.0000   
         C         C         1.0       0.29011869275184277           0.4843073708663712 0.45783806828482837          1.0000   
         H         H         1.0       0.3071984336272954  0.49376867891635345           0.39573582611236513          1.0000   
         H         H         1.0       0.3436006429420152  0.481790980757043   0.4303816912388804 1.0000   
         H         H         1.0       0.2919148001295279  0.503142160058229   0.4828240507958532 1.0000   
         H         H         1.0       0.30198515835788653           0.4567178291788841 0.4690293005010933 1.0000   
         C         C         1.0       0.5904889993827226  0.42832472144479866           0.0967204578575378 1.0000   
         C         C         1.0       0.5962176521585577  0.4602844491970176  0.1274480679452905 1.0000   
         H         H         1.0       0.611704240222216   0.4059948767412561  0.10320967639136258          1.0000   
         H         H         1.0       0.6000786006088994  0.4369450594520159  0.06638312526854695          1.0000   
         H         H         1.0       0.5929329002292514  0.44959302397480166           0.15896083878453582          1.0000   
         H         H         1.0       0.6266144703086037  0.47060440463471137           0.1231124499542513 1.0000   
         C         C         1.0       0.17812244855790854           0.432807710846503  0.2126133945263813 1.0000   
         C         C         1.0       0.16207756716681326           0.4736870211320701 0.2201210926022851 1.0000   
         H         H         1.0       0.16265491781347738           0.4242401042962303 0.18802503311621585          1.0000   
         H         H         1.0       0.1649468140298498  0.41106725236298813           0.23110591939733044          1.0000   
         H         H         1.0       0.18744807676961203           0.492783893566509  0.2164819832319582 1.0000   
         H         H         1.0       0.1415934497802695  0.48131287785272003           0.19534389670478589          1.0000   
         C         C         1.0       0.27245218932316406           0.23809689923453567          0.2910279231002794 1.0000   
         C         C         1.0       0.2297283259232157  0.23819804739416425           0.30692288830456493          1.0000   
         H         H         1.0       0.29312606133078206           0.2238504264100918 0.3128036987127065 1.0000   
         H         H         1.0       0.2747400952616783  0.2190993810798902  0.2642107104919981 1.0000   
         H         H         1.0       0.21451531885542618           0.21023657870708462          0.30202972055282973          1.0000   
         H         H         1.0       0.21055810914399836           0.2566016335260168 0.28892924863221014          1.0000   
         C         C         1.0       0.4504096176108512  0.4707105539962095  0.31561649176116807          1.0000   
         C         C         1.0       0.43881833109275714           0.4980619260749426 0.3501637859824678 1.0000   
         H         H         1.0       0.46931496535337236           0.4500296440874992 0.32852189761111905          1.0000   
         H         H         1.0       0.470697106417119   0.48416309740274355           0.2929577368872339 1.0000   
         H         H         1.0       0.4197069120568698  0.4828381237071882  0.371331702256201  1.0000   
         H         H         1.0       0.4205124277446557  0.52203776560196    0.33946460544087054          1.0000   
         C         C         1.0       0.9765824324869187  0.790149126976755   0.8736575800286869 1.0000   
         C         C         1.0       0.9678686541270652  0.8208842325565876  0.9052055825785389 1.0000   
         H         H         1.0       0.00726580013277367           0.7837389953151306 0.8730007946026089 1.0000   
         H         H         1.0       0.9695896119732622  0.7999803559207711  0.8429452392849524 1.0000   
         H         H         1.0       0.9478212494383523  0.8059756740655115  0.9270863856295811 1.0000   
         H         H         1.0       0.952269169136535   0.8466328074229138  0.8926908919599786 1.0000   
         C         C         1.0       0.9309529489614087  0.3522903789137034  0.931159424973385  1.0000   
         C         C         1.0       0.9581408726315817  0.3624342556409765  0.9647783757160987 1.0000   
         H         H         1.0       0.9020421104605164  0.3633483954455537  0.9377996345287747 1.0000   
         H         H         1.0       0.9269227974953106  0.3197959237472587  0.9259609570094746 1.0000   
         H         H         1.0       0.987313218107234   0.35052905224855624           0.955337867447211  1.0000   
         H         H         1.0       0.9475452467567299  0.3464193916925753  0.9918690718185802 1.0000   
         C         C         1.0       0.8105298141471899  0.254965135510895   0.36425764411334627          1.0000   
         C         C         1.0       0.7858016045629261  0.2764384803792055  0.3968525985441073 1.0000   
         H         H         1.0       0.7926662103319023  0.2436882762866584  0.33976227999915826          1.0000   
         H         H         1.0       0.8242334256189018  0.22801261438526876           0.37686945480034756          1.0000   
         H         H         1.0       0.7723897010171665  0.302978130380471   0.38373127448659566          1.0000   
         H         H         1.0       0.7599386635182268  0.2590077154255667  0.40115318915977927          1.0000   
         C         C         1.0       0.9143401095717757  0.42041082951669706           0.47402116372890973          1.0000   
         C         C         1.0       0.9018916454970629  0.461315464370306   0.48742910529758265          1.0000   
         H         H         1.0       0.8888703680631291  0.40339212513338196           0.4831793708658379 1.0000   
         H         H         1.0       0.9385142562820259  0.4102152415310629  0.4928474760445805 1.0000   
         H         H         1.0       0.8960088274620631  0.4557588513367619  0.5185157036898076 1.0000   
         H         H         1.0       0.8752282454066731  0.46890170584424845           0.47356951523385327          1.0000   
         C         C         1.0       0.05619646963359415           0.545216342237913  0.13405705287637137          1.0000   
         C         C         1.0       0.08420379878930717           0.5125249732359645 0.13803399809452777          1.0000   
         H         H         1.0       0.07429897557852394           0.5707905040061012 0.12665371722706165          1.0000   
         H         H         1.0       0.0453244490658149  0.5490048113297956  0.16455089038508075          1.0000   
         H         H         1.0       0.10272484872803056           0.5108257817500503 0.11133433962283901          1.0000   
         H         H         1.0       0.10336031977851445           0.5239354718274707 0.1633247334920589 1.0000   
         C         C         1.0       0.20583034350571805           0.29360529429755283          0.15013755899117887          1.0000   
         C         C         1.0       0.17893627970856874           0.27119906275398176          0.17728465019445938          1.0000   
         H         H         1.0       0.23055142958157537           0.2765377162021047 0.1443248208067065 1.0000   
         H         H         1.0       0.21504990031256543           0.3191903413433736 0.1643752534123606 1.0000   
         H         H         1.0       0.19438298021997147           0.2666552329872132 0.2039978817605026 1.0000   
         H         H         1.0       0.17435140544953698           0.2426420068652466 0.16297814244399644          1.0000   
         C         C         1.0       0.46787790518253036           0.4028041855114168 0.9064890849421321 1.0000   
         C         C         1.0       0.4517788335236137  0.4047287648454238  0.8649566445196311 1.0000   
         H         H         1.0       0.48168164155486604           0.42983979420042984          0.9150253181037845 1.0000   
         H         H         1.0       0.441918458292439   0.400130256413731   0.9249633102915947 1.0000   
         H         H         1.0       0.42930644244851    0.3844585814290744  0.8601399612769622 1.0000   
         H         H         1.0       0.4696242815681532  0.39849318795359956           0.8391418490712386 1.0000   
         C         C         1.0       0.5688411415642657  0.22200333850822965           0.11916766201493623          1.0000   
         C         C         1.0       0.6059988579363984  0.24576352648243863           0.11682850207966489          1.0000   
         H         H         1.0       0.569260477916926   0.20066646259919013           0.09344901617279189          1.0000   
         H         H         1.0       0.5680844112607409  0.20570580722828533           0.14605007541154613          1.0000   
         H         H         1.0       0.6318915977402585  0.22561663336335383           0.12247792339987229          1.0000   
         H         H         1.0       0.6003568350610679  0.2696457751010234  0.13902290973110887          1.0000   
         C         C         1.0       0.8737692481470954  0.3668045560517197  0.06871892361107923          1.0000   
         C         C         1.0       0.9035971841625343  0.33447558361521784           0.06921309452948399          1.0000   
         H         H         1.0       0.8559080884071896  0.36940139636788044           0.09536074381223969          1.0000   
         H         H         1.0       0.8879986478793573  0.39550448927891624           0.07016493180106509          1.0000   
         H         H         1.0       0.9177539539913514  0.330633084583677   0.04060135719715041          1.0000   
         H         H         1.0       0.8880287434709594  0.3071258606012317  0.07675232311813862          1.0000   
         C         C         1.0       0.7414228460739314  0.5364281515984654  0.015363851820000107         1.0000   
         C         C         1.0       0.7680581906162779  0.5339387873827177  0.052249820599705954         1.0000   
         H         H         1.0       0.7517806824629252  0.5597723579832953  0.9959516526665158 1.0000   
         H         H         1.0       0.7135545468196228  0.5423275539616659  0.02708989054798283          1.0000   
         H         H         1.0       0.7572639793650748  0.5089666841577347  0.06976315012465517          1.0000   
         H         H         1.0       0.7653831391602263  0.5617450151432979  0.0695857285214152 1.0000   
         C         C         1.0       0.834443014650937   0.3320078320125325  0.766797419227948  1.0000   
         C         C         1.0       0.7946133349502454  0.3289578979787528  0.7870105939347356 1.0000   
         H         H         1.0       0.842977548606217   0.3633810284769414  0.7664733746857745 1.0000   
         H         H         1.0       0.8279349647975303  0.32235359388471657           0.7364882403941737 1.0000   
         H         H         1.0       0.773259985327672   0.343940416373899   0.768306205778043  1.0000   
         H         H         1.0       0.7829375546127222  0.2990566785005089  0.7851484848741458 1.0000   
         C         C         1.0       0.051425752367447064          0.01115200577429798          0.18934201394479372          1.0000   
         C         C         1.0       0.07694248943798465           0.04149628016579254          0.16982018610751665          1.0000   
         H         H         1.0       0.05121303644862785           0.9860712288538709 0.16884993091765294          1.0000   
         H         H         1.0       0.022157056584835688          0.02196738639234308          0.19055380881371908          1.0000   
         H         H         1.0       0.08002416094920894           0.0665469926237634 0.18914613757030363          1.0000   
         H         H         1.0       0.06382169217868694           0.05250097919200769          0.14216895009678798          1.0000   
         C         C         1.0       0.2081118037865829  0.10764322537318094           0.3396522153773283 1.0000   
         C         C         1.0       0.2482787465905772  0.10735617178654522           0.35808081868518243          1.0000   
         H         H         1.0       0.21377829946808855           0.11099346063231752          0.307646940225325  1.0000   
         H         H         1.0       0.19289345212290232           0.13325733340005042          0.3492595166672922 1.0000   
         H         H         1.0       0.26412176023081196           0.08041783535453328          0.3512156861862804 1.0000   
         H         H         1.0       0.2649018168794565  0.13369261262837817           0.347373456320154  1.0000   
         C         C         1.0       0.9118188260254585  0.980553095853091   0.6323913719079853 1.0000   
         C         C         1.0       0.9557593409765823  0.9712309497319371  0.6197573785588599 1.0000   
         H         H         1.0       0.906430446726589   0.9809295327106772  0.6646675481674414 1.0000   
         H         H         1.0       0.8936589147720894  0.9567091449294896  0.621798377761864  1.0000   
         H         H         1.0       0.963887093315734   0.94755280490183    0.6387092671702019 1.0000   
         H         H         1.0       0.9683353376342992  0.9970126354000003  0.6305062187255799 1.0000   
         C         C         1.0       0.8978438617553749  0.9143929877351824  0.7895697115189777 1.0000   
         C         C         1.0       0.8896395168285374  0.9573681592882101  0.7773475669243447 1.0000   
         H         H         1.0       0.8887544823159076  0.9123921440159796  0.8205573427890149 1.0000   
         H         H         1.0       0.9307496373476912  0.909354461202213   0.7926570926105152 1.0000   
         H         H         1.0       0.8579323057834718  0.9616918438025746  0.7787843345095594 1.0000   
         H         H         1.0       0.8959198545009786  0.9610213820274698  0.7467291214675105 1.0000   
         C         C         1.0       0.9818633898071167  0.737428210618808   0.4707211983301842 1.0000   
         C         C         1.0       0.016988638279227253          0.7527784926186011 0.49619356932001724          1.0000   
         H         H         1.0       0.9798831930585653  0.7059060482940135  0.47234790730623194          1.0000   
         H         H         1.0       0.9871688792011375  0.7405962359612466  0.4393484101260685 1.0000   
         H         H         1.0       0.01149639152255455           0.7439952026894551 0.5281654914867411 1.0000   
         H         H         1.0       0.04634165141152602           0.7382189562738014 0.4881889641077383 1.0000   
         C         C         1.0       0.7591597625064058  0.9577048040292477  0.4632612198944224 1.0000   
         C         C         1.0       0.7687783764703958  0.9489574920075815  0.5066709210041415 1.0000   
         H         H         1.0       0.7522955572005183  0.9319253231305047  0.4441464019935599 1.0000   
         H         H         1.0       0.7872375635491925  0.9676599485117285  0.45038787398113234          1.0000   
         H         H         1.0       0.741088005971831   0.9498963718104927  0.5238085549617453 1.0000   
         H         H         1.0       0.7870900443635379  0.9732291320678849  0.5174004437684883 1.0000   
         C         C         1.0       0.8896520561665304  0.6366329343265424  0.7044823172562207 1.0000   
         C         C         1.0       0.8716116692583302  0.6053995689783932  0.7312482411970787 1.0000   
         H         H         1.0       0.9226824072990661  0.639453127001777   0.7109781293803916 1.0000   
         H         H         1.0       0.8913605903482338  0.6226073289945339  0.6746259167780871 1.0000   
         H         H         1.0       0.8860344317795054  0.5773701970578964  0.7283421683521654 1.0000   
         H         H         1.0       0.8434542874842054  0.5968274679455027  0.7228303560706508 1.0000   
         C         C         1.0       0.807378508779589   0.44255729291982815           0.27764463929266353          1.0000   
         C         C         1.0       0.7708680295247679  0.4307196873593138  0.3004701322901496 1.0000   
         H         H         1.0       0.809677554002137   0.4297972953089286  0.24710786404330407          1.0000   
         H         H         1.0       0.8308102577806608  0.43096845856197247           0.292292619561671  1.0000   
         H         H         1.0       0.7661885272111203  0.399273653761371   0.29667044751115074          1.0000   
         H         H         1.0       0.7449117861801524  0.44559139796882125           0.2856192663901952 1.0000   
         C         C         1.0       0.9026850325462957  0.48808383236225766           0.1540189367289462 1.0000   
         C         C         1.0       0.8736442031904298  0.45957931210920844           0.17081199537399572          1.0000   
         H         H         1.0       0.9006436119176721  0.48752787354162846           0.1218910754777831 1.0000   
         H         H         1.0       0.93261020070695    0.4790515692235787  0.15713724151206898          1.0000   
         H         H         1.0       0.8667564458414372  0.43795633091280733           0.1469485760318492 1.0000   
         H         H         1.0       0.8455633883571183  0.47174925106050336           0.1747291290115609 1.0000   
         C         C         1.0       0.9514937244193042  0.7228019788494027  0.36551079054375546          1.0000   
         C         C         1.0       0.90928522149499    0.723589766043116   0.3519182608209214 1.0000   
         H         H         1.0       0.9589365834554576  0.7486136693439559  0.38301330289939334          1.0000   
         H         H         1.0       0.9707726252487802  0.7272786928796422  0.33989052918865154          1.0000   
         H         H         1.0       0.9056128078565429  0.7501979727011394  0.33404090848101814          1.0000   
         H         H         1.0       0.8900907323598035  0.7286162610643266  0.3783656021255383 1.0000   
         C         C         1.0       0.8679412550660296  0.8560916608899964  0.31821771065224885          1.0000   
         C         C         1.0       0.8651656219673696  0.8587760655890329  0.3665637038269349 1.0000   
         H         H         1.0       0.8609789221997203  0.8845213833092199  0.30588841269215905          1.0000   
         H         H         1.0       0.8971217397421224  0.8468783372703341  0.30864912442447695          1.0000   
         H         H         1.0       0.8598711941662012  0.8309080774518686  0.37757312437839546          1.0000   
         H         H         1.0       0.8395621880323453  0.8745871209203951  0.3751703778706641 1.0000   
         C         C         1.0       0.7117066213437488  0.6626712620710347  0.4176469300235678 1.0000   
         C         C         1.0       0.7119996689058469  0.690764178109944   0.45309953580548973          1.0000   
         H         H         1.0       0.6820243075982044  0.6501498868020023  0.4121777664428914 1.0000   
         H         H         1.0       0.7320695410086743  0.6386176497215446  0.4273619233958956 1.0000   
         H         H         1.0       0.7004097528985854  0.672234366489625   0.4790088648308634 1.0000   
         H         H         1.0       0.688505406725757   0.7125625872599058  0.45188562023847356          1.0000   
         C         C         1.0       0.650156232634093   0.8717203295239191  0.22103790366715192          1.0000   
         C         C         1.0       0.646648451839878   0.8376923236052048  0.19104250659913208          1.0000   
         H         H         1.0       0.6454526995916576  0.8571843596919272  0.24900357723713756          1.0000   
         H         H         1.0       0.6272493389279223  0.8941240748207918  0.22280685853183507          1.0000   
         H         H         1.0       0.6503751485484794  0.8464432307039181  0.15984631377506459          1.0000   
         H         H         1.0       0.6154630134812938  0.8294783135807728  0.19355992077017709          1.0000   
         C         C         1.0       0.8095278428355765  0.8344316920069156  0.025671857398085196         1.0000   
         C         C         1.0       0.7966004994546989  0.8560738613453938  0.9879353916259003 1.0000   
         H         H         1.0       0.8255257950023105  0.8101857133023659  0.01477298724978926          1.0000   
         H         H         1.0       0.7856651077532867  0.8232822780353728  0.04055836279824265          1.0000   
         H         H         1.0       0.7864721524113534  0.8861183296295974  0.9949773179185211 1.0000   
         H         H         1.0       0.8235969212658538  0.8607465318942981  0.9716564582742302 1.0000   
         C         C         1.0       0.45281186925429967           0.8599529618732907 0.06306108871049898          1.0000   
         C         C         1.0       0.4888001568182441  0.8612289190618857  0.03853079197488962          1.0000   
         H         H         1.0       0.43229206184134356           0.874597624929995  0.04608648758892264          1.0000   
         H         H         1.0       0.45975105651802395           0.8750903018514576 0.09172711253988686          1.0000   
         H         H         1.0       0.5018547698794679  0.889324675678101   0.04818687171475733          1.0000   
         H         H         1.0       0.5098235863330267  0.8409114404636473  0.051227281191903895         1.0000   
         C         C         1.0       0.7091038750392528  0.6384276615711677  0.9894711221445797 1.0000   
         C         C         1.0       0.7520872140240109  0.6427175443846178  0.0038988201157845737        1.0000   
         H         H         1.0       0.7072201688538806  0.6124629588117163  0.9724041298656598 1.0000   
         H         H         1.0       0.6894167617124931  0.6342889585466016  0.013362665981180077         1.0000   
         H         H         1.0       0.7489246075495547  0.6697228096315256  0.02337951020186857          1.0000   
         H         H         1.0       0.7572733553553245  0.6177701114436552  0.022415415731520172         1.0000   
         C         C         1.0       0.6499305358020564  0.7913550329978147  0.7099989705773357 1.0000   
         C         C         1.0       0.6240065413169192  0.804476192819935   0.7456869950022467 1.0000   
         H         H         1.0       0.6410347258529574  0.8057993992803013  0.6826745235644334 1.0000   
         H         H         1.0       0.6462542844452536  0.7594000949983958  0.7044313964394724 1.0000   
         H         H         1.0       0.5938782552984637  0.7916877931609697  0.7426663313128423 1.0000   
         H         H         1.0       0.6202028335367074  0.8368106899253893  0.7454249010070829 1.0000   
         C         C         1.0       0.2810076209209859  0.30239103625574915           0.7228223516392778 1.0000   
         C         C         1.0       0.24114902489294907           0.3042349861462273 0.7455332735337062 1.0000   
         H         H         1.0       0.29126748159820315           0.33235100882030755          0.7154409758816012 1.0000   
         H         H         1.0       0.27571018946152576           0.29481209605538294          0.6913918297909369 1.0000   
         H         H         1.0       0.2307183374737046  0.2739684367223723  0.7530695047489353 1.0000   
         H         H         1.0       0.2192810288209215  0.3114629396831213  0.7239446544277085 1.0000   
         C         C         1.0       0.3172375953723019  0.27575406519033085           0.9616579136741811 1.0000   
         C         C         1.0       0.3296819993124755  0.31742204003447355           0.9737476520647634 1.0000   
         H         H         1.0       0.2846569371149757  0.2762862322975333  0.9606297098075421 1.0000   
         H         H         1.0       0.3260130235305516  0.2524229764810533  0.9822507161001961 1.0000   
         H         H         1.0       0.3051040619389515  0.33348478450442226           0.987435286512078  1.0000   
         H         H         1.0       0.3386696757102932  0.3332939490403194  0.9466029749769266 1.0000   
         C         C         1.0       0.5692586543197753  0.16994034750725143           0.8359275943708938 1.0000   
         C         C         1.0       0.5403317541220108  0.18246334510723175           0.8020117680168399 1.0000   
         H         H         1.0       0.5996434272161962  0.16173459015338887           0.826345675017595  1.0000   
         H         H         1.0       0.5549542640281582  0.14421859742419071           0.8503539355313121 1.0000   
         H         H         1.0       0.5440240747794106  0.1607473890872914  0.7791555565227148 1.0000   
         H         H         1.0       0.5546649118604382  0.20831343184147882           0.7885768241566432 1.0000   
         C         C         1.0       0.4971619064011413  0.9545829641901911  0.7240165305220173 1.0000   
         C         C         1.0       0.5299530901919828  0.9545080428943402  0.7515262347927286 1.0000   
         H         H         1.0       0.49093083675928467           0.9250826055796258 0.7105341773078787 1.0000   
         H         H         1.0       0.5059269669345222  0.97171835850558    0.6976865979773546 1.0000   
         H         H         1.0       0.5566210831091201  0.9521755521309616  0.7344520475162591 1.0000   
         H         H         1.0       0.534593364640727   0.9824478497052369  0.7628970523003182 1.0000   
         C         C         1.0       0.4605825802366004  0.05245278960295163           0.9900319389464841 1.0000   
         C         C         1.0       0.48453902029415463           0.030462664203536383         0.9591663748126598 1.0000   
         H         H         1.0       0.44692676074730786           0.07590225195661393          0.9739105222522644 1.0000   
         H         H         1.0       0.48015806723245485           0.0676818265727388 0.01198657287245486          1.0000   
         H         H         1.0       0.49371578918262304           0.0029883873254126225        0.9711638617449682 1.0000   
         H         H         1.0       0.5084166517053479  0.050413177784742524         0.9506685991546848 1.0000   
         C         C         1.0       0.33461334069412496           0.9622253106028537 0.4618100035332846 1.0000   
         C         C         1.0       0.3234813712225849  0.957176761205147   0.4191879518225127 1.0000   
         H         H         1.0       0.33893174259203807           0.9934481278347127 0.4693637027217493 1.0000   
         H         H         1.0       0.36333546912327086           0.9492505582993994 0.4673607088600778 1.0000   
         H         H         1.0       0.34524523885935154           0.9700842427319714 0.3979647362589145 1.0000   
         H         H         1.0       0.2968177164857601  0.9748348776764852  0.417104309750395  1.0000   
         C         C         1.0       0.1421508078850917  0.059461878008226554         0.6388877986527465 1.0000   
         C         C         1.0       0.1561018931765665  0.02667163740603473           0.6660079382789587 1.0000   
         H         H         1.0       0.1363631640021755  0.08466093975436428           0.6583539254637979 1.0000   
         H         H         1.0       0.11340648262854369           0.05214890077400569          0.6266839465301157 1.0000   
         H         H         1.0       0.13394036598573272           0.018466902793323303         0.6865026963865313 1.0000   
         H         H         1.0       0.17972478123444668           0.03720993527299288          0.6846545442558415 1.0000   
         C         C         1.0       0.148816910704132   0.8140017810325346  0.43572807086055687          1.0000   
         C         C         1.0       0.16643593802674153           0.819520466096696  0.39739250038692747          1.0000   
         H         H         1.0       0.15552103895825084           0.7826198964463322 0.4421460582526153 1.0000   
         H         H         1.0       0.11755227230180165           0.8163940555480871 0.4293838657066502 1.0000   
         H         H         1.0       0.1994299041456867  0.81915125523219    0.40222060066554294          1.0000   
         H         H         1.0       0.16045224085595253           0.7915279825209824 0.3791535037925782 1.0000   
         C         C         1.0       0.22407860147602257           0.9241715337731824 0.8376587739232433 1.0000   
         C         C         1.0       0.22598302867749548           0.9682323241840999 0.836633586956403  1.0000   
         H         H         1.0       0.19668627681246403           0.9162128327723239 0.8490729357927388 1.0000   
         H         H         1.0       0.24730661079788271           0.912197596029053  0.8576472609067611 1.0000   
         H         H         1.0       0.21188755311748259           0.9815670287842999 0.8622032117060392 1.0000   
         H         H         1.0       0.21181202503122484           0.9800681991232443 0.8114695833138521 1.0000   
         C         C         1.0       0.41616675798052266           0.7277033365037269 0.7804486457277476 1.0000   
         C         C         1.0       0.4026211158602636  0.7380907300606036  0.7387416389653118 1.0000   
         H         H         1.0       0.43471847903671473           0.7024914618808611 0.7771759664863452 1.0000   
         H         H         1.0       0.3943468122566513  0.7140302327903557  0.7986459860706426 1.0000   
         H         H         1.0       0.4015102064682729  0.7122272421033139  0.7198059858478328 1.0000   
         H         H         1.0       0.42344170356205935           0.7529693516266355 0.7223867695321972 1.0000   
         C         C         1.0       0.16030640370792035           0.6525006937908401 0.7687815399818057 1.0000   
         C         C         1.0       0.14255671982476878           0.6836849423979485 0.7397196078480984 1.0000   
         H         H         1.0       0.18512118984572398           0.6369740164155238 0.7523693924217498 1.0000   
         H         H         1.0       0.13534139421074354           0.6328466162654179 0.7733510054060623 1.0000   
         H         H         1.0       0.13458523287661806           0.6699830988988986 0.7118817787487054 1.0000   
         H         H         1.0       0.11770466161158555           0.6952376346021879 0.7548057222065792 1.0000

