data_0
_chemical_formula_sum                   'C1200 H960'
_cell_length_a                          39.13449741190179
_cell_length_b                          39.14311163547256
_cell_length_c                          38.688208058688986
_cell_angle_alpha                       90.58791460984189
_cell_angle_beta                        89.94296960405258
_cell_angle_gamma                       89.8347089969619
_space_group_name_H-M_alt               'P 1'
_space_group_IT_number                  1
loop_
  _space_group_symop_operation_xyz
         'x, y, z' 
loop_
  _atom_site_type_symbol
  _atom_site_label
  _atom_site_symmetry_multiplicity
  _atom_site_fract_x
  _atom_site_fract_y
  _atom_site_fract_z
  _atom_site_occupancy
         C         C         1.0       0.25282971409094246           0.9670200665304011 0.6188688891418083 1.0000   
         C         C         1.0       0.2180288837479772  0.9588736089352515  0.6155502371494344 1.0000   
         C         C         1.0       0.20650346719361334           0.9299986031543953 0.6016374168430404 1.0000   
         C         C         1.0       0.22748235262090505           0.9027969027397876 0.59661142475915   1.0000   
         C         C         1.0       0.26333175603745934           0.9094951421442452 0.5978201399510177 1.0000   
         C         C         1.0       0.27503654410752837           0.9409999600091736 0.6097080698504261 1.0000   
         H         H         1.0       0.19885990126729922           0.9761788544885658 0.6227270590728785 1.0000   
         H         H         1.0       0.17911456829209943           0.925107981593957  0.603959737016224  1.0000   
         H         H         1.0       0.2831095510395192  0.8902956363173941  0.5905578506669726 1.0000   
         H         H         1.0       0.30181201139480973           0.9431742002071781 0.6104265065991769 1.0000   
         C         C         1.0       0.24337744635119302           0.851886953323332  0.5374465984414292 1.0000   
         C         C         1.0       0.2312865101828289  0.8399214461127323  0.5682945199833114 1.0000   
         C         C         1.0       0.23482951225912527           0.8065936391976323 0.5762179512216608 1.0000   
         C         C         1.0       0.24617002460435    0.7841771705272078  0.5527077247376196 1.0000   
         C         C         1.0       0.2565477983340163  0.7945922005064375  0.520448300689779  1.0000   
         C         C         1.0       0.25650855987406346           0.8295159932605592 0.5137721904450275 1.0000   
         C         C         1.0       0.21136849290603907           0.8646892303844094 0.5928165408635678 1.0000   
         C         C         1.0       0.1747339116692362  0.8646706347738241  0.5741408162248037 1.0000   
         C         C         1.0       0.1474416175094125  0.8436673447161381  0.5820124358051966 1.0000   
         C         C         1.0       0.11936014982578971           0.8387360217043556 0.5603453291682085 1.0000   
         C         C         1.0       0.11873100428712788           0.8559334474333166 0.5298606935629987 1.0000   
         C         C         1.0       0.14382036292659459           0.8790305166441263 0.5215321419030433 1.0000   
         C         C         1.0       0.17075551227992075           0.8819372355980886 0.5429609425306912 1.0000   
         C         C         1.0       0.24113740855805416           0.846736870145829  0.6507039441215152 1.0000   
         C         C         1.0       0.24513801969407792           0.853279409635969  0.685863263864627  1.0000   
         C         C         1.0       0.2198234716642804  0.8690376349957731  0.7043668700342829 1.0000   
         C         C         1.0       0.18710044893333735           0.8694173076011815 0.6889577635747343 1.0000   
         C         C         1.0       0.18534448358073533           0.8654012217697301 0.65325581888605   1.0000   
         C         C         1.0       0.21188106626820616           0.855155636254933  0.6328007943587286 1.0000   
         C         C         1.0       0.22626030069333422           0.8843560571824707 0.7413142943290346 1.0000   
         C         C         1.0       0.22019785268298617           0.7973175372423283 0.8099532435576402 1.0000   
         C         C         1.0       0.25055525683192686           0.8059363885633891 0.7951563905449326 1.0000   
         C         C         1.0       0.25189759716744003           0.8321815840337441 0.7704523198124832 1.0000   
         C         C         1.0       0.2230071690620892  0.8526649252387033  0.7657790076387737 1.0000   
         C         C         1.0       0.19278512619255567           0.8405476114922908 0.7793208517742253 1.0000   
         C         C         1.0       0.19058346037683704           0.8133952833461995 0.8017100319022457 1.0000   
         C         C         1.0       0.20177639164303554           0.9153087892789553 0.7502251327983978 1.0000   
         C         C         1.0       0.19465631998137478           0.9390575987643783 0.7258567664408806 1.0000   
         C         C         1.0       0.1752216535028727  0.9661509148557618  0.7335371168791447 1.0000   
         C         C         1.0       0.16440484969841834           0.9720653533222057 0.7667536839560319 1.0000   
         C         C         1.0       0.17171512775727246           0.9491594156442261 0.7925558355544363 1.0000   
         C         C         1.0       0.1918572954258949  0.9204937543397874  0.7840159993050757 1.0000   
         C         C         1.0       0.27982396283684563           0.9072810435502853 0.7752055692411566 1.0000   
         C         C         1.0       0.31141493617944677           0.9225956988560062 0.7766819994691376 1.0000   
         C         C         1.0       0.3264193811681891  0.9335620194401771  0.7478103080553    1.0000   
         C         C         1.0       0.30931793338386815           0.9325710330103719 0.7170471878776024 1.0000   
         C         C         1.0       0.27717910586294314           0.9187415723957286 0.7158739115260816 1.0000   
         C         C         1.0       0.26303337800458615           0.9032494801336215 0.7442030809967803 1.0000   
         H         H         1.0       0.24309974164868925           0.8785825269319654 0.5328184523129916 1.0000   
         H         H         1.0       0.22453769483715005           0.7948704606712897 0.599050476048134  1.0000   
         H         H         1.0       0.25294973462738024           0.758347255483174  0.5602092800214529 1.0000   
         H         H         1.0       0.2615267031832571  0.8407232220375762  0.4879640321441589 1.0000   
         H         H         1.0       0.14723869658023048           0.8285115854643471 0.6059566641050754 1.0000   
         H         H         1.0       0.09846412526400115           0.8229081236376329 0.5685202170741982 1.0000   
         H         H         1.0       0.14598726298163073           0.8887355435133468 0.4956243674784024 1.0000   
         H         H         1.0       0.19024668007874634           0.9001644726763156 0.5347420905501764 1.0000   
         H         H         1.0       0.26406759031946675           0.8373426879746617 0.6372154776524102 1.0000   
         H         H         1.0       0.26916498664233984           0.8517969161257031 0.6973218990155334 1.0000   
         H         H         1.0       0.1665652088828559  0.8818351503792419  0.7043072792825638 1.0000   
         H         H         1.0       0.16102789423383354           0.871311982466588  0.6412258175968236 1.0000   
         H         H         1.0       0.27606204912675564           0.7930758916364989 0.7985267294673977 1.0000   
         H         H         1.0       0.2746750303777203  0.8392457692173075  0.760636715994342  1.0000   
         H         H         1.0       0.16970327506596636           0.8536366312528473 0.7717047485498315 1.0000   
         H         H         1.0       0.1678766574663471  0.807079728212778   0.8144093951120862 1.0000   
         H         H         1.0       0.20222277174672315           0.9343826562766401 0.6989991615621906 1.0000   
         H         H         1.0       0.17255800051007192           0.9874261153571342 0.7145496659091328 1.0000   
         H         H         1.0       0.1663513368621441  0.9530929615177385  0.8191583104284531 1.0000   
         H         H         1.0       0.1970277845629802  0.9017496087885196  0.8027037011910947 1.0000   
         H         H         1.0       0.2656994833606695  0.901153216878432   0.7967871149800699 1.0000   
         H         H         1.0       0.3270428965298732  0.9204201718673525  0.8009231687258455 1.0000   
         H         H         1.0       0.31951990888631643           0.9424957718887111 0.6935006045354573 1.0000   
         H         H         1.0       0.2652437125370654  0.918378452189181   0.6904649729668688 1.0000   
         C         C         1.0       0.4431476321523132  0.0846617862074928  0.9036578515709641 1.0000   
         C         C         1.0       0.43249875205634286           0.06878525514855444          0.9333476669234946 1.0000   
         C         C         1.0       0.4019549889105953  0.07503426927447011           0.9489918681270155 1.0000   
         C         C         1.0       0.3817043759777613  0.10072800493782139           0.937867571669951  1.0000   
         C         C         1.0       0.39030957273778566           0.11585383473935836          0.90704618724601   1.0000   
         C         C         1.0       0.4205673390443429  0.10849421411250025           0.8894704921538368 1.0000   
         H         H         1.0       0.4478086862473214  0.04897828819560002           0.946626208527707  1.0000   
         H         H         1.0       0.39184538695219095           0.06071591850440962          0.9691677652856204 1.0000   
         H         H         1.0       0.37395466711660635           0.13430997455946878          0.8957193930367386 1.0000   
         H         H         1.0       0.4275601293561063  0.12379329255725931           0.865737234620869  1.0000   
         C         C         1.0       0.3465901154790969  0.17318061171609622           0.9495303040239041 1.0000   
         C         C         1.0       0.3277755605462077  0.1441714941599413  0.9500992144391994 1.0000   
         C         C         1.0       0.29250016777746146           0.1467212855714632 0.9475449301517582 1.0000   
         C         C         1.0       0.27717278519902583           0.17712099422913152          0.9443787641034902 1.0000   
         C         C         1.0       0.2954689649032077  0.20655674678565092           0.9484602753751094 1.0000   
         C         C         1.0       0.33063814709524386           0.20357626464868223          0.9490029286460102 1.0000   
         C         C         1.0       0.34569712244735856           0.10745162095521697          0.958188864963235  1.0000   
         C         C         1.0       0.34666214678895    0.10998638944530888           0.999458253734484  1.0000   
         C         C         1.0       0.3170541210826588  0.10836535995871112           0.02006082952712429          1.0000   
         C         C         1.0       0.31654611437281943           0.11232307500442103          0.05505070789801425          1.0000   
         C         C         1.0       0.34524466652951624           0.11837380517868541          0.07250944953791261          1.0000   
         C         C         1.0       0.37530400419162246           0.12162903968529674          0.05552205333604432          1.0000   
         C         C         1.0       0.3754016174341273  0.11809087526375885           0.01910017639066952          1.0000   
         C         C         1.0       0.31247137385416474           0.07580394958378744          0.910016603448207  1.0000   
         C         C         1.0       0.2972311272302332  0.049431491703795905         0.8956007973586478 1.0000   
         C         C         1.0       0.2912223806477672  0.01910539046055959           0.9123315226536586 1.0000   
         C         C         1.0       0.3003875353263604  0.018180081536179893         0.9467467600586761 1.0000   
         C         C         1.0       0.31580948203628567           0.04507024529783488          0.9627968156455713 1.0000   
         C         C         1.0       0.32171205019074295           0.0745790487181929 0.9436793728852585 1.0000   
         C         C         1.0       0.2832145105802386  0.9836767161313639  0.8921418359216259 1.0000   
         C         C         1.0       0.2317950438687141  0.8922621577539436  0.929955189238992  1.0000   
         C         C         1.0       0.2257426128905325  0.9228827884091431  0.9473513507401728 1.0000   
         C         C         1.0       0.24332417595029665           0.9525742379368538 0.9369360496521183 1.0000   
         C         C         1.0       0.26366694328878776           0.9518242772946612 0.9080119112998776 1.0000   
         C         C         1.0       0.2672843968410524  0.9214059452338115  0.8910586944434052 1.0000   
         C         C         1.0       0.25342837701089216           0.8914087471999091 0.9027357160789846 1.0000   
         C         C         1.0       0.3235736728173796  0.9754551654424998  0.8875017622294571 1.0000   
         C         C         1.0       0.33953772733308485           0.9581309697986801 0.9146582147294154 1.0000   
         C         C         1.0       0.37416038136321705           0.9555765270180964 0.9165594717309801 1.0000   
         C         C         1.0       0.39372212946625906           0.9679645526832037 0.8908482451721175 1.0000   
         C         C         1.0       0.3775508751782162  0.9828772649454744  0.8635428963261254 1.0000   
         C         C         1.0       0.34330977487697517           0.9854717570642875 0.8607005633523289 1.0000   
         C         C         1.0       0.230242117682913   0.011311077796231084         0.8693505462009011 1.0000   
         C         C         1.0       0.20752926112778305           0.022744430286034234         0.846032879757761  1.0000   
         C         C         1.0       0.21534955882011197           0.01805543285602429          0.8114418619536476 1.0000   
         C         C         1.0       0.24537564684301091           0.0018744732191862123        0.8002631230119618 1.0000   
         C         C         1.0       0.26701748453135077           0.9889629211853822 0.8250585359839061 1.0000   
         C         C         1.0       0.25986087113512774           0.9939772718727348 0.8602544065123693 1.0000   
         H         H         1.0       0.3744371351684702  0.17333258960098596           0.953249874650697  1.0000   
         H         H         1.0       0.2782832903027047  0.12445325039223683           0.9475404445660562 1.0000   
         H         H         1.0       0.25018170537254814           0.17466574355983863          0.9396150247474241 1.0000   
         H         H         1.0       0.3447605818903113  0.22715022482385352           0.9465727716933539 1.0000   
         H         H         1.0       0.2922483090140795  0.10399555905070658           0.007968594586446498         1.0000   
         H         H         1.0       0.29384809030122716           0.106943051309643  0.06673089434096702          1.0000   
         H         H         1.0       0.3967007165812964  0.12983344474220687           0.07101134636981699          1.0000   
         H         H         1.0       0.39761531261582583           0.12416478286004011          0.004104193992298777         1.0000   
         H         H         1.0       0.31747823577888673           0.09781408456262408          0.8953121790184472 1.0000   
         H         H         1.0       0.2934936921962138  0.05122998324857586           0.8678007481882041 1.0000   
         H         H         1.0       0.29842450437269813           0.9951620539746724 0.9604885809886551 1.0000   
         H         H         1.0       0.3240130937435753  0.04527521106647958           0.9899615982247931 1.0000   
         H         H         1.0       0.210047539156357   0.9223771487107323  0.9716161564459705 1.0000   
         H         H         1.0       0.24122491734883866           0.9767352302944459 0.9514256351231253 1.0000   
         H         H         1.0       0.28510068607450206           0.9181791958177302 0.8693326441906114 1.0000   
         H         H         1.0       0.25993474352418305           0.8666199905967811 0.8912326843746733 1.0000   
         H         H         1.0       0.3260999370055813  0.9500215090869135  0.9363990918914159 1.0000   
         H         H         1.0       0.38362030515689144           0.9440006734283793 0.9403783207209573 1.0000   
         H         H         1.0       0.3928835059239222  0.997462358275668   0.8445903191239484 1.0000   
         H         H         1.0       0.3332176737609929  0.9972612594694059  0.8379520859254341 1.0000   
         H         H         1.0       0.2196634608487927  0.012847525356757261         0.8952461241152657 1.0000   
         H         H         1.0       0.1836943448952775  0.03588363530037597           0.8544362643461724 1.0000   
         H         H         1.0       0.2514044075220657  0.9982833499602891  0.7729193169849519 1.0000   
         H         H         1.0       0.28818599633323155           0.9747006072443922 0.8180255441843033 1.0000   
         C         C         1.0       0.5281051896807671  0.7918532132444644  0.6796247151413153 1.0000   
         C         C         1.0       0.5210208255632215  0.7580929923548996  0.686032251158918  1.0000   
         C         C         1.0       0.5331672416279939  0.7423220733892973  0.7139292970753258 1.0000   
         C         C         1.0       0.5497572259278499  0.7600469266765968  0.7412731600699646 1.0000   
         C         C         1.0       0.5564082372337025  0.7939168395367863  0.7346867287882056 1.0000   
         C         C         1.0       0.5457326089521911  0.8094726333835813  0.7055094105929485 1.0000   
         H         H         1.0       0.5119149104063706  0.7413402623790216  0.6676824720167579 1.0000   
         H         H         1.0       0.5232577060739174  0.7183972327992758  0.7205770984094766 1.0000   
         H         H         1.0       0.5683155697716958  0.811381152066166   0.7541211586503995 1.0000   
         H         H         1.0       0.5509644301593379  0.83651691490916    0.7031061619834605 1.0000   
         C         C         1.0       0.6215344624548661  0.7598943571471641  0.7754298415468993 1.0000   
         C         C         1.0       0.5945354954976185  0.7451759058499065  0.7932915354461216 1.0000   
         C         C         1.0       0.6006376266214882  0.7363281473145633  0.8282346179505594 1.0000   
         C         C         1.0       0.6324437628182032  0.7408369498071558  0.8425275701686198 1.0000   
         C         C         1.0       0.6582847930395229  0.75803729952335    0.8253315628026061 1.0000   
         C         C         1.0       0.6522310069778978  0.7666886732805643  0.7926145728727932 1.0000   
         C         C         1.0       0.5584634778286586  0.7400031535948978  0.7767403604357488 1.0000   
         C         C         1.0       0.5603601572903861  0.7002586714269755  0.7733198240762019 1.0000   
         C         C         1.0       0.5473240821517217  0.6793964916175521  0.7993833204523592 1.0000   
         C         C         1.0       0.5522951630745567  0.6446430006808798  0.79830368687767   1.0000   
         C         C         1.0       0.5707461495221078  0.6304338145291845  0.7720263598549615 1.0000   
         C         C         1.0       0.5848930685032809  0.6509394815734174  0.7465560612984857 1.0000   
         C         C         1.0       0.5812352873513353  0.6848285843536451  0.7488884874611428 1.0000   
         C         C         1.0       0.534730404624613   0.7823516538393253  0.8209390868327912 1.0000   
         C         C         1.0       0.5063581080321388  0.7989798397827576  0.8346443550991872 1.0000   
         C         C         1.0       0.4728712505466735  0.79009560726767    0.8242226387139152 1.0000   
         C         C         1.0       0.4702038604390893  0.7610454735094168  0.8050198118609773 1.0000   
         C         C         1.0       0.49768985985162717           0.7424312096728177 0.7944646176091952 1.0000   
         C         C         1.0       0.5302573906585684  0.7553235034226493  0.7987953160527694 1.0000   
         C         C         1.0       0.4377159818977766  0.8112769401321502  0.8369522386442729 1.0000   
         C         C         1.0       0.38261107471411493           0.7335598442508555 0.8936825281892081 1.0000   
         C         C         1.0       0.41143657731118805           0.7480877239522222 0.9061631099702893 1.0000   
         C         C         1.0       0.42845458662445796           0.7729363508228368 0.8874824216452796 1.0000   
         C         C         1.0       0.41775805588338427           0.7823260321756568 0.8549052665941964 1.0000   
         C         C         1.0       0.3895109775170659  0.7664328656930695  0.8422663811764047 1.0000   
         C         C         1.0       0.37134578866821577           0.7418701674646065 0.8607357833838202 1.0000   
         C         C         1.0       0.41986540512279036           0.8285066139898837 0.8048732854810917 1.0000   
         C         C         1.0       0.43644597661027973           0.8328210788055315 0.7732153284983821 1.0000   
         C         C         1.0       0.4222716783133618  0.8548333539265467  0.7486799928661763 1.0000   
         C         C         1.0       0.3918145755308763  0.8707563083353699  0.7536260716079352 1.0000   
         C         C         1.0       0.3743729309057176  0.8600247072364544  0.7819039371491978 1.0000   
         C         C         1.0       0.38760880884221144           0.8422492497531612 0.8070480278864963 1.0000   
         C         C         1.0       0.4260777327194885  0.8516978310635294  0.8875424905997055 1.0000   
         C         C         1.0       0.4288493684845223  0.8826709609363602  0.9045133832792287 1.0000   
         C         C         1.0       0.451078189106574   0.9065904942344276  0.892691482963857  1.0000   
         C         C         1.0       0.4704127058841133  0.8995114743245517  0.8639496243363118 1.0000   
         C         C         1.0       0.46696084998564297           0.8696292993943481 0.8466008123024831 1.0000   
         C         C         1.0       0.4458297652976938  0.8445458182367879  0.8599182207090471 1.0000   
         H         H         1.0       0.6184997018535521  0.7707654536390732  0.7515837666639016 1.0000   
         H         H         1.0       0.582006596643194   0.7235426210156677  0.845243880016724  1.0000   
         H         H         1.0       0.6358448414373529  0.7365468185864676  0.8702804424796255 1.0000   
         H         H         1.0       0.6734623363369776  0.7782675262620927  0.780201561149536  1.0000   
         H         H         1.0       0.5348337384441857  0.6910698353080867  0.8219494102351211 1.0000   
         H         H         1.0       0.5398745321770058  0.6269606832463341  0.8156884491442217 1.0000   
         H         H         1.0       0.6015174253214918  0.6403211459604708  0.7271347055454109 1.0000   
         H         H         1.0       0.5981180105279842  0.699972857611757   0.7332477808141671 1.0000   
         H         H         1.0       0.5614531018976504  0.7922890704118564  0.8237461152436597 1.0000   
         H         H         1.0       0.5127458343081026  0.8168771838973491  0.8557801546542604 1.0000   
         H         H         1.0       0.44545044040936455           0.7519792602236973 0.7981949286427664 1.0000   
         H         H         1.0       0.49364014462564854           0.719040392063975  0.7799853473265361 1.0000   
         H         H         1.0       0.4255781636690876  0.7385962701891082  0.9273818921243149 1.0000   
         H         H         1.0       0.45176732833758976           0.7851464041285244 0.8964130613365171 1.0000   
         H         H         1.0       0.3804762471439701  0.7726308896401568  0.8179913902431001 1.0000   
         H         H         1.0       0.34962882251363286           0.7293816100313587 0.8502304096630054 1.0000   
         H         H         1.0       0.46177163976626423           0.8223893922035801 0.7654998377979696 1.0000   
         H         H         1.0       0.4365147867540959  0.8616280469245658  0.7259574704809375 1.0000   
         H         H         1.0       0.34734626518569034           0.8674446281561787 0.7852531296427523 1.0000   
         H         H         1.0       0.3711543005869427  0.8348550420040545  0.8270162572232436 1.0000   
         H         H         1.0       0.40515562800387356           0.8382059811344007 0.8961509104336186 1.0000   
         H         H         1.0       0.41244343182110543           0.887398568796447  0.9266852271297502 1.0000   
         H         H         1.0       0.486773707942806   0.9191172153856184  0.85355463571246   1.0000   
         H         H         1.0       0.4843468291358672  0.8659678222720445  0.8244761683103479 1.0000   
         C         C         1.0       0.9942519196444896  0.6124846254061383  0.34247664213012047          1.0000   
         C         C         1.0       0.9900583589338368  0.6167107589906761  0.30795180213361817          1.0000   
         C         C         1.0       0.9592227164402286  0.6129195107673824  0.29266558305625023          1.0000   
         C         C         1.0       0.9304708672312946  0.6040202629887765  0.31161402620770356          1.0000   
         C         C         1.0       0.9347387603052402  0.6019248761742038  0.34730328305558833          1.0000   
         C         C         1.0       0.966065316672736   0.6052418759056208  0.36238350445519235          1.0000   
         H         H         1.0       0.010160277694482911          0.6261000917209744 0.29023796210741504          1.0000   
         H         H         1.0       0.9566103096951682  0.6134307508845175  0.26650386689799077          1.0000   
         H         H         1.0       0.9139816777991294  0.5920246067769209  0.3630295991709579 1.0000   
         H         H         1.0       0.96965395116289    0.605988797751114   0.3895426300030465 1.0000   
         C         C         1.0       0.8742091749264329  0.5461276821834455  0.3189382574053616 1.0000   
         C         C         1.0       0.8650796808997845  0.5791776484329234  0.3132430763462325 1.0000   
         C         C         1.0       0.8308340092051767  0.5867273033306941  0.31531263668023635          1.0000   
         C         C         1.0       0.8071405208744897  0.5641222106876315  0.3257842995200836 1.0000   
         C         C         1.0       0.81669741691393    0.530932312754069   0.33073684389631575          1.0000   
         C         C         1.0       0.8511578403274013  0.5233718489695184  0.32906323028837214          1.0000   
         C         C         1.0       0.8914455439100151  0.6067438365232882  0.298385031512958  1.0000   
         C         C         1.0       0.8879572144786103  0.599671504392991   0.25844567953231706          1.0000   
         C         C         1.0       0.8626435232734774  0.6146518452732539  0.2387633886534519 1.0000   
         C         C         1.0       0.8607146939138116  0.61148990144419    0.2038480854218392 1.0000   
         C         C         1.0       0.8832179769699672  0.5897597827957006  0.18678589749868374          1.0000   
         C         C         1.0       0.9056519277156323  0.5711128216509395  0.20588504592156318          1.0000   
         C         C         1.0       0.9081621157408076  0.5757562497483556  0.24014235536213088          1.0000   
         C         C         1.0       0.870651782484485   0.6558384298617359  0.337367937181822  1.0000   
         C         C         1.0       0.8670047841749587  0.689890360536815   0.34540194007468933          1.0000   
         C         C         1.0       0.8847921282208047  0.7143068933096022  0.3272974808692773 1.0000   
         C         C         1.0       0.8969238808811875  0.7042386917475312  0.29519695228007203          1.0000   
         C         C         1.0       0.8980210649153565  0.669508788204851   0.285509525055247  1.0000   
         C         C         1.0       0.884564554511195   0.6448474689666859  0.30683639186245043          1.0000   
         C         C         1.0       0.8867325682523708  0.7532103173510837  0.34141417092368387          1.0000   
         C         C         1.0       0.8108364349222436  0.7987534709925812  0.2757152327469719 1.0000   
         C         C         1.0       0.8011406211430588  0.7868853358991152  0.3068120817389842 1.0000   
         C         C         1.0       0.825462639580327   0.7738481615821912  0.32826731165533524          1.0000   
         C         C         1.0       0.8592794435884878  0.7721552591585334  0.3182207973461304 1.0000   
         C         C         1.0       0.8675200710336345  0.7822910412280616  0.2852184077206024 1.0000   
         C         C         1.0       0.8443275187845748  0.7951236396777883  0.2641287262567854 1.0000   
         C         C         1.0       0.9249041049813231  0.7670949901286823  0.3391296846181554 1.0000   
         C         C         1.0       0.9535676276286974  0.747666263795134   0.3480874078601819 1.0000   
         C         C         1.0       0.9844180649129556  0.7625068128245687  0.35985771405073375          1.0000   
         C         C         1.0       0.9874358021069681  0.7969568562796913  0.3598286724457222 1.0000   
         C         C         1.0       0.9627247234046369  0.8157079881898788  0.34513572967733924          1.0000   
         C         C         1.0       0.932020937303756   0.8009277874161531  0.33504128441348363          1.0000   
         C         C         1.0       0.8712584561924628  0.7910706821018368  0.3968604909657147 1.0000   
         C         C         1.0       0.8759191133982587  0.7962481381965429  0.4323057776871842 1.0000   
         C         C         1.0       0.8902500626986459  0.7726280097272151  0.45300193687018525          1.0000   
         C         C         1.0       0.8999966689381719  0.741375831677518   0.43955829247007966          1.0000   
         C         C         1.0       0.8945807630741329  0.7355120982612531  0.4049577217534148 1.0000   
         C         C         1.0       0.8828801162788757  0.7606146398282855  0.38275155066073435          1.0000   
         H         H         1.0       0.9007093868800845  0.537569844629849   0.3147723052856772 1.0000   
         H         H         1.0       0.8222521436967428  0.610018006098226   0.3060055882479627 1.0000   
         H         H         1.0       0.7798053532728554  0.5702227779789556  0.3287334498378188 1.0000   
         H         H         1.0       0.8611153982513228  0.4977955930462344  0.3354411934786011 1.0000   
         H         H         1.0       0.8439092545260632  0.6322640926707992  0.2515844019781642 1.0000   
         H         H         1.0       0.8367672930172494  0.6190973885613937  0.19198419796421143          1.0000   
         H         H         1.0       0.922539489716803   0.5531605798392905  0.19538785485095253          1.0000   
         H         H         1.0       0.9263895598378147  0.5583904776151851  0.2533563845880806 1.0000   
         H         H         1.0       0.8642858430263199  0.6371743332741527  0.3569141269940715 1.0000   
         H         H         1.0       0.8536053374712523  0.6974457198936936  0.3679614439724838 1.0000   
         H         H         1.0       0.912108299203584   0.7239212802182394  0.2805242188795371 1.0000   
         H         H         1.0       0.910793853357871   0.6627037738185143  0.26057040744522936          1.0000   
         H         H         1.0       0.7747314025768812  0.7851341990832671  0.315105781273462  1.0000   
         H         H         1.0       0.8186489363189511  0.7631985752760141  0.35260566315991976          1.0000   
         H         H         1.0       0.8937836738701989  0.7770813827126926  0.274451888034623  1.0000   
         H         H         1.0       0.8534275984070974  0.7993366280302535  0.23744488675862083          1.0000   
         H         H         1.0       0.9496082680588607  0.7203330168364084  0.34995392697756283          1.0000   
         H         H         1.0       0.002062490090221969          0.7437265327554029 0.37253356452195296          1.0000   
         H         H         1.0       0.9634126201736788  0.8425214309228641  0.3478865876093261 1.0000   
         H         H         1.0       0.912018701612145   0.8184892543255309  0.32833690889312395          1.0000   
         H         H         1.0       0.8580020979375788  0.8100903053304387  0.3840477787735473 1.0000   
         H         H         1.0       0.8655879860997523  0.8184980360241217  0.445242208641629  1.0000   
         H         H         1.0       0.9124173914612888  0.7207236134147361  0.45430674928444914          1.0000   
         H         H         1.0       0.9056208458016699  0.7120795550386877  0.3942947639648722 1.0000   
         C         C         1.0       0.7508253415118387  0.7268791187823518  0.6072992777439784 1.0000   
         C         C         1.0       0.7240906354811518  0.7324635757788385  0.5858218141007008 1.0000   
         C         C         1.0       0.702209524724471   0.7591121728667894  0.5904473396334662 1.0000   
         C         C         1.0       0.706239453819456   0.7825439419312687  0.616172610754829  1.0000   
         C         C         1.0       0.7335189977210828  0.7775585551499661  0.6390366838757682 1.0000   
         C         C         1.0       0.7563685794126608  0.7496212937610498  0.6346788380269376 1.0000   
         H         H         1.0       0.7206827904891516  0.7137234360060034  0.5656628248644456 1.0000   
         H         H         1.0       0.6837588042385949  0.764915959741406   0.5700186340687318 1.0000   
         H         H         1.0       0.7406599956923307  0.7943286654706028  0.6608378709906175 1.0000   
         H         H         1.0       0.7785826731324516  0.7462727525540034  0.6503904853498931 1.0000   
         C         C         1.0       0.6814810428328226  0.8223970460408728  0.6854536701143324 1.0000   
         C         C         1.0       0.6796883085981218  0.8379047763925938  0.6528924752148267 1.0000   
         C         C         1.0       0.6727631503529332  0.8722466104272296  0.6514301795187115 1.0000   
         C         C         1.0       0.6671882455587689  0.8914139752810013  0.6815430025229371 1.0000   
         C         C         1.0       0.670460894071957   0.876187793604006   0.7137981662062469 1.0000   
         C         C         1.0       0.6779344444169835  0.8411090313650759  0.7153603854133027 1.0000   
         C         C         1.0       0.6822153826521277  0.8153149239272108  0.6190903858569792 1.0000   
         C         C         1.0       0.643270078437102   0.806138104431731   0.6113362557846037 1.0000   
         C         C         1.0       0.620488592385536   0.8277239622453243  0.5966894917114716 1.0000   
         C         C         1.0       0.5867456834621559  0.820067468664659   0.5987467498683214 1.0000   
         C         C         1.0       0.5747946789684278  0.7936026975159816  0.6172046750395126 1.0000   
         C         C         1.0       0.5983501001246865  0.7716139308783306  0.632445559592683  1.0000   
         C         C         1.0       0.6309982332481139  0.7782446325253691  0.6295658476028354 1.0000   
         C         C         1.0       0.7306200141952928  0.8552301162367514  0.591955146330117  1.0000   
         C         C         1.0       0.748397945266967   0.8647241776914047  0.5632951262977811 1.0000   
         C         C         1.0       0.7384756534333307  0.8591190396454229  0.529212497575019  1.0000   
         C         C         1.0       0.7084916471625946  0.840475847766558   0.5251364042355154 1.0000   
         C         C         1.0       0.6895828566992369  0.832295117784042   0.5536267757271573 1.0000   
         C         C         1.0       0.7000395071824734  0.837538424447925   0.5874347476417857 1.0000   
         C         C         1.0       0.7594043338088524  0.8733975050639317  0.4974802583429405 1.0000   
         C         C         1.0       0.6994474489605881  0.8735109615007653  0.4014835994045965 1.0000   
         C         C         1.0       0.6856282455273033  0.8865364745445113  0.43116389131128574          1.0000   
         C         C         1.0       0.705571199495985   0.888563025556469   0.45998072319932826          1.0000   
         C         C         1.0       0.738031990986347   0.8727384435087105  0.4619699901956187 1.0000   
         C         C         1.0       0.7505186020495694  0.8583256286853446  0.4311771430321418 1.0000   
         C         C         1.0       0.7319018038812422  0.8590969673171696  0.4019970907508476 1.0000   
         C         C         1.0       0.7915941959446128  0.8480007360008697  0.5006223892932158 1.0000   
         C         C         1.0       0.7887700345014755  0.8135328493717124  0.49268795405601845          1.0000   
         C         C         1.0       0.8145826842418777  0.7898914488028178  0.49669292763472384          1.0000   
         C         C         1.0       0.8436685452662708  0.8006587941616236  0.5128027636956926 1.0000   
         C         C         1.0       0.8478919184423659  0.8343404831499237  0.5216352141340544 1.0000   
         C         C         1.0       0.8225020012210361  0.8575657731609012  0.5148993159998486 1.0000   
         C         C         1.0       0.7928503091917922  0.9242628922022444  0.473246680231258  1.0000   
         C         C         1.0       0.8070871258103232  0.9555263494267198  0.47686373976320773          1.0000   
         C         C         1.0       0.7987515673486723  0.9775349034789138  0.5028201509726797 1.0000   
         C         C         1.0       0.7742440866922146  0.9686302542875194  0.5259853266215779 1.0000   
         C         C         1.0       0.759204277861107   0.9367296585360596  0.5225855073817427 1.0000   
         C         C         1.0       0.7704660123066871  0.9125181379356623  0.498023425867793  1.0000   
         H         H         1.0       0.6852426399646261  0.7955931523725054  0.6891982179229372 1.0000   
         H         H         1.0       0.6746704364739413  0.8851203749076642  0.6267303108718162 1.0000   
         H         H         1.0       0.6612924705569998  0.9183026295813823  0.6793679042806844 1.0000   
         H         H         1.0       0.6789691447644643  0.8281304481134046  0.7411540055489786 1.0000   
         H         H         1.0       0.6307712171847921  0.8494165927712652  0.5856330307206542 1.0000   
         H         H         1.0       0.5694095256513557  0.8405751671974784  0.5883247174994845 1.0000   
         H         H         1.0       0.5881004395111713  0.7471706870549332  0.6427591399092717 1.0000   
         H         H         1.0       0.6495504116418062  0.7582067038185863  0.6396786995431    1.0000   
         H         H         1.0       0.7406054092797533  0.8605556125619255  0.6173460210623614 1.0000   
         H         H         1.0       0.7701219757028374  0.8809331873964428  0.5682735678450549 1.0000   
         H         H         1.0       0.7019459078315757  0.8304773085622962  0.49876697220106697          1.0000   
         H         H         1.0       0.6671655672540677  0.8193071592233141  0.5485590789799751 1.0000   
         H         H         1.0       0.6591415064791897  0.8956554126008426  0.42868424907897656          1.0000   
         H         H         1.0       0.6943375369870709  0.9019574008768463  0.4824460652139238 1.0000   
         H         H         1.0       0.775794643587953   0.8496297982977183  0.4304966577376608 1.0000   
         H         H         1.0       0.7449606578580276  0.8501671907482453  0.37794252637456044          1.0000   
         H         H         1.0       0.7634030986067261  0.8060829430319846  0.4802164991822659 1.0000   
         H         H         1.0       0.8099914415300843  0.763476250932287   0.48897849855990655          1.0000   
         H         H         1.0       0.8714004903282264  0.84414078773371    0.5346912641271351 1.0000   
         H         H         1.0       0.8275147794506833  0.8817155704257393  0.524191765345044  1.0000   
         H         H         1.0       0.7994481721281749  0.9081007442206451  0.4515037629474888 1.0000   
         H         H         1.0       0.8253953345269509  0.9645980909699734  0.45882209648557226          1.0000   
         H         H         1.0       0.7665495142015415  0.9871875855543304  0.5451360197809842 1.0000   
         H         H         1.0       0.7385702277926117  0.9313664593424943  0.5392665911577529 1.0000   
         C         C         1.0       0.09541481786771074           0.8759293107851329 0.44549081232601295          1.0000   
         C         C         1.0       0.09127238440432027           0.9101988687842453 0.4565602723059097 1.0000   
         C         C         1.0       0.08464294114392622           0.935930125735868  0.4330496841208247 1.0000   
         C         C         1.0       0.07859581696991286           0.9283430328640916 0.39875212458823506          1.0000   
         C         C         1.0       0.07691848770544261           0.8950094604529617 0.3887930784391144 1.0000   
         C         C         1.0       0.08779173952687615           0.8694410383013339 0.41030774670899717          1.0000   
         H         H         1.0       0.09489024624818797           0.9181364989835332 0.4829389451354372 1.0000   
         H         H         1.0       0.08635646846337897           0.961695598642731  0.4441409901268424 1.0000   
         H         H         1.0       0.07286275101843066           0.8908264363484368 0.362005014388934  1.0000   
         H         H         1.0       0.08917433854986409           0.8448859542634594 0.39992767624176867          1.0000   
         C         C         1.0       0.10622482638639627           0.9389215886567315 0.3242715635215146 1.0000   
         C         C         1.0       0.07717048524671787           0.9557186216384101 0.3351617630266318 1.0000   
         C         C         1.0       0.0563609133427864  0.9693216236980983  0.30917677201803523          1.0000   
         C         C         1.0       0.06604620385928539           0.9663849310013426 0.2754132151194251 1.0000   
         C         C         1.0       0.09370577411274891           0.9459107583622867 0.26564415248467405          1.0000   
         C         C         1.0       0.11262524986135086           0.9316524767026264 0.29040080658000705          1.0000   
         C         C         1.0       0.06694162611284066           0.96131697165608   0.37586083512097396          1.0000   
         C         C         1.0       0.08714495682884191           0.995938804762249  0.38271953488527877          1.0000   
         C         C         1.0       0.07425854774644183           0.027958385925320295         0.3809128900889567 1.0000   
         C         C         1.0       0.09279550680617124           0.056725145633990115         0.3860957928983146 1.0000   
         C         C         1.0       0.12665371744515858           0.055134130630146716         0.39487629547716663          1.0000   
         C         C         1.0       0.1426582106678716  0.022349929209776187         0.3976392264418067 1.0000   
         C         C         1.0       0.12150916443929563           0.9940394113137119 0.39003057445421035          1.0000   
         C         C         1.0       0.006075342205621226          0.9391828059594272 0.3652675504138467 1.0000   
         C         C         1.0       0.9732275217111998  0.9327583958960545  0.37671035203463815          1.0000   
         C         C         1.0       0.9605053497081442  0.9483867214048154  0.406574429892875  1.0000   
         C         C         1.0       0.981711734741565   0.97114305612373    0.4238644580207464 1.0000   
         C         C         1.0       0.01396272757442163           0.9771663739979454 0.4122187420648764 1.0000   
         C         C         1.0       0.027191495369884855          0.9597389347991768 0.38273039486095634          1.0000   
         C         C         1.0       0.9262927564234291  0.9307985870352402  0.4233287374466048 1.0000   
         C         C         1.0       0.8425163446198868  0.9164917281401468  0.3513566458049574 1.0000   
         C         C         1.0       0.8414853415706902  0.9008309500109318  0.38379140094730635          1.0000   
         C         C         1.0       0.8671491136004514  0.9084989684582394  0.4070516081809901 1.0000   
         C         C         1.0       0.8946903550928602  0.927497735135436   0.3974311295332237 1.0000   
         C         C         1.0       0.8923148572657454  0.945113335544787   0.3680703729704067 1.0000   
         C         C         1.0       0.8684043371048599  0.9399868395961967  0.3444519723713949 1.0000   
         C         C         1.0       0.9121453523489296  0.9546001877167808  0.45237376224827447          1.0000   
         C         C         1.0       0.9039877037154325  0.9432907011767432  0.4845767100701545 1.0000   
         C         C         1.0       0.8850486830384121  0.9622284268179714  0.5071305969353964 1.0000   
         C         C         1.0       0.877489694192598   0.9954715890941996  0.5002906567183347 1.0000   
         C         C         1.0       0.8870001057563566  0.008857570005808668         0.46830864080270085          1.0000   
         C         C         1.0       0.9044780176290215  0.9884922934262997  0.44477827885188237          1.0000   
         C         C         1.0       0.9323512956209676  0.8643578864436237  0.4222187535484593 1.0000   
         C         C         1.0       0.9520581210474832  0.8338027752423167  0.42501792407365463          1.0000   
         C         C         1.0       0.9845275833647201  0.835935148321695   0.43642657259665046          1.0000   
         C         C         1.0       0.9937387608489782  0.8647754007215772  0.45413879204549806          1.0000   
         C         C         1.0       0.9730889422601232  0.8933994526918639  0.4554016488708713 1.0000   
         C         C         1.0       0.9435059832385981  0.8954363522289454  0.43588759888554196          1.0000   
         H         H         1.0       0.1250356307817977  0.9310577145848966  0.3450198692502978 1.0000   
         H         H         1.0       0.035647108975172426          0.9831452970181109 0.3176465160211281 1.0000   
         H         H         1.0       0.051376580389319595          0.9795248382365839 0.25708561649850337          1.0000   
         H         H         1.0       0.13438206633338515           0.9156548674961954 0.28406261818101797          1.0000   
         H         H         1.0       0.04817469414190833           0.03125711079409266          0.37417900582994335          1.0000   
         H         H         1.0       0.08018970680058381           0.0795352591006584 0.38035414404986245          1.0000   
         H         H         1.0       0.16956111609176636           0.022051866745216975         0.40713672717288985          1.0000   
         H         H         1.0       0.13502802975409453           0.9703540862565079 0.3928043582546809 1.0000   
         H         H         1.0       0.015232925196735136          0.9215404002644905 0.3453144487481027 1.0000   
         H         H         1.0       0.9572114639691316  0.9130750496719775  0.36683704365220743          1.0000   
         H         H         1.0       0.9739472071177583  0.9799225648364922  0.44962791645907857          1.0000   
         H         H         1.0       0.032242993593257996          0.992303904197475  0.4283934802260513 1.0000   
         H         H         1.0       0.8225422589072691  0.8829150378007216  0.3927464241760311 1.0000   
         H         H         1.0       0.8671280835467444  0.8963918156253964  0.4333003909419843 1.0000   
         H         H         1.0       0.9130479447086406  0.9639023387620586  0.3631110340484725 1.0000   
         H         H         1.0       0.8707327025757667  0.9534568558838664  0.3202782624997817 1.0000   
         H         H         1.0       0.9097860693833909  0.9179795581945334  0.49285292878681536          1.0000   
         H         H         1.0       0.880450520076551   0.9514477084101193  0.5311684250303237 1.0000   
         H         H         1.0       0.8741055288779755  0.03231255986349635           0.460805409819291  1.0000   
         H         H         1.0       0.9161718485390506  0.00023519390385740024       0.42235315263539314          1.0000   
         H         H         1.0       0.9104709384408752  0.8632937398500233  0.4065131454398144 1.0000   
         H         H         1.0       0.9427450972119502  0.8112408565784911  0.4136244825215565 1.0000   
         H         H         1.0       0.020819263782381192          0.8666488319755578 0.465234041254971  1.0000   
         H         H         1.0       0.9850537625619633  0.9155537600296717  0.4679164553904663 1.0000   
         C         C         1.0       0.5241397838802168  0.3060496514648911  0.9951743789524741 1.0000   
         C         C         1.0       0.5395901622184611  0.2751612334105103  0.9891145097397472 1.0000   
         C         C         1.0       0.529952000496307   0.25528544818349364           0.962630317173982  1.0000   
         C         C         1.0       0.5068688766545342  0.2671269851359598  0.9382935233639081 1.0000   
         C         C         1.0       0.4910595765459343  0.2987622825486096  0.9440674914071198 1.0000   
         C         C         1.0       0.4991002124253328  0.31646671431984813           0.973584818095026  1.0000   
         H         H         1.0       0.5565384511551895  0.2639394566448845  0.006524590244375572         1.0000   
         H         H         1.0       0.5433095123478245  0.2320648052043831  0.9566943385972968 1.0000   
         H         H         1.0       0.4705396882871757  0.309832296937096   0.9272805138572923 1.0000   
         H         H         1.0       0.48373138097392754           0.3392947215659691 0.9776805107420591 1.0000   
         C         C         1.0       0.4366401203819536  0.24698023951393577           0.9069765218246821 1.0000   
         C         C         1.0       0.4657535732324781  0.2475200847197396  0.8863027993835039 1.0000   
         C         C         1.0       0.45964794416984467           0.24677222632618917          0.8497787468479648 1.0000   
         C         C         1.0       0.42839408108386484           0.24586573489802904          0.8358893607771536 1.0000   
         C         C         1.0       0.40050985667104877           0.24392406041288955          0.8573690708077565 1.0000   
         C         C         1.0       0.4045397661982366  0.24730898992617645           0.8922531953490783 1.0000   
         C         C         1.0       0.5016384088478625  0.2451456610175076  0.90355055668374   1.0000   
         C         C         1.0       0.5032119164351833  0.2030793269834162  0.9050514497229896 1.0000   
         C         C         1.0       0.5145269584022901  0.1847343315350024  0.8762838862969914 1.0000   
         C         C         1.0       0.5151378986894072  0.14931979439630422           0.876084438385668  1.0000   
         C         C         1.0       0.5047156766637162  0.13309673267921243           0.9041657644183998 1.0000   
         C         C         1.0       0.4933619300814302  0.15149991523367629           0.9333580586857125 1.0000   
         C         C         1.0       0.4920330660197564  0.18593387895438646           0.9340712819784805 1.0000   
         C         C         1.0       0.5286540769774698  0.2936711976384858  0.8633141189637362 1.0000   
         C         C         1.0       0.5547902905135735  0.31326317371614887           0.8501574379966967 1.0000   
         C         C         1.0       0.5884817661031599  0.3029852850391795  0.8576852633062044 1.0000   
         C         C         1.0       0.5932419628602081  0.271874539627319   0.8738441002729597 1.0000   
         C         C         1.0       0.5672199578654437  0.2528826291156451  0.8849633186368774 1.0000   
         C         C         1.0       0.5334580350640915  0.26372587572563244           0.88153737639854   1.0000   
         C         C         1.0       0.6215530074959056  0.3260814098305852  0.8496814658765905 1.0000   
         C         C         1.0       0.6613792370469986  0.2730801649400696  0.757355821873209  1.0000   
         C         C         1.0       0.6343227422250769  0.29700430556573015           0.7552716569745827 1.0000   
         C         C         1.0       0.6221066615014457  0.31324756279980737           0.7839123945494639 1.0000   
         C         C         1.0       0.6353123497523057  0.3062015737564593  0.8152676019822008 1.0000   
         C         C         1.0       0.6577512826749553  0.27939670854804727           0.8189972937179346 1.0000   
         C         C         1.0       0.6710389094459844  0.2630068359838838  0.7902775645427264 1.0000   
         C         C         1.0       0.6506123898839201  0.33045486119600737           0.8801623890360999 1.0000   
         C         C         1.0       0.6419783147937126  0.32822165511026236           0.9134603294520818 1.0000   
         C         C         1.0       0.6639823774276924  0.34084210449593966           0.9394204157168131 1.0000   
         C         C         1.0       0.696822798847255   0.34841108246900926           0.9293127590064626 1.0000   
         C         C         1.0       0.7060602899383532  0.34848162373005137           0.8956823298890798 1.0000   
         C         C         1.0       0.6835895336946962  0.3373348358791421  0.8716529852880209 1.0000   
         C         C         1.0       0.6277002479292668  0.38671649140731085           0.8179905427917797 1.0000   
         C         C         1.0       0.6226694161660338  0.42077929895467114           0.8190738025253365 1.0000   
         C         C         1.0       0.6020644628135544  0.4347718969273279  0.8450567111577769 1.0000   
         C         C         1.0       0.5870787022607291  0.4142986506267974  0.8691729747165662 1.0000   
         C         C         1.0       0.5936521072126529  0.38056489390088377           0.8684047524776205 1.0000   
         C         C         1.0       0.6133444760784866  0.3640437876039187  0.8430719174832534 1.0000   
         H         H         1.0       0.4373989955435248  0.24937764046184227           0.9350069689915971 1.0000   
         H         H         1.0       0.48128276701203093           0.2418575269749334 0.8327058511487662 1.0000   
         H         H         1.0       0.4244438739742032  0.245987082487621   0.8096666617014986 1.0000   
         H         H         1.0       0.3809615730916238  0.24517592814428876           0.9079523234145537 1.0000   
         H         H         1.0       0.5201210888827338  0.1976844322197912  0.853596051815661  1.0000   
         H         H         1.0       0.5287344536277906  0.13550548656901693           0.8555218004488239 1.0000   
         H         H         1.0       0.47995644246902314           0.1394520120641962 0.9533827575373903 1.0000   
         H         H         1.0       0.4786930394513623  0.19868440866931472           0.9545806554632628 1.0000   
         H         H         1.0       0.5039166372911108  0.3032654938049028  0.8609670707834499 1.0000   
         H         H         1.0       0.545758865138278   0.3378022804715082  0.8390582900133564 1.0000   
         H         H         1.0       0.6171806867743009  0.26103865675274784           0.8798240388567136 1.0000   
         H         H         1.0       0.5718169962905484  0.23002536779299115           0.899878635474841  1.0000   
         H         H         1.0       0.6260777707550553  0.30546349017910407           0.7298307878877435 1.0000   
         H         H         1.0       0.5995486960068983  0.32861539665836514           0.7805196879047406 1.0000   
         H         H         1.0       0.6691804985274805  0.2712116335511807  0.8429822604311918 1.0000   
         H         H         1.0       0.6871616342215509  0.24041009457357307           0.7958485252843047 1.0000   
         H         H         1.0       0.6158437742170672  0.3231498824681539  0.9217451845210483 1.0000   
         H         H         1.0       0.6563028618850568  0.34162885824987393           0.9662621796749444 1.0000   
         H         H         1.0       0.7316666368307543  0.3552590911379852  0.8834309226206699 1.0000   
         H         H         1.0       0.6912166476652217  0.3378670124653945  0.8445258242623803 1.0000   
         H         H         1.0       0.6447267066300715  0.3747297307413584  0.7983998078098987 1.0000   
         H         H         1.0       0.640084044194588   0.4379203443588769  0.803433002810203  1.0000   
         H         H         1.0       0.5740285340182111  0.42698835500979265           0.8909186928987803 1.0000   
         H         H         1.0       0.5841159507013245  0.3681055569659778  0.89094366506676   1.0000   
         C         C         1.0       0.8767244432861329  0.5172856235232897  0.1470069495640774 1.0000   
         C         C         1.0       0.9094127961016432  0.5117480345156717  0.1349351254392205 1.0000   
         C         C         1.0       0.9231241738345555  0.48024941129555504           0.133859689609905  1.0000   
         C         C         1.0       0.9045506491254223  0.45260574693274275           0.14643576537591085          1.0000   
         C         C         1.0       0.8721647257358708  0.45879757649269926           0.15832680808486846          1.0000   
         C         C         1.0       0.8580879245504874  0.4912379297594252  0.16114346228515977          1.0000   
         H         H         1.0       0.9249146720767395  0.5329068834337886  0.12486294732190667          1.0000   
         H         H         1.0       0.9485834715452837  0.47725889086996    0.12288547961839423          1.0000   
         H         H         1.0       0.8568332432485369  0.4369846983128278  0.1657420056271498 1.0000   
         H         H         1.0       0.832733424480875   0.4950575657048235  0.171366754683194  1.0000   
         C         C         1.0       0.8984362688418491  0.3937968986172668  0.20511541845871858          1.0000   
         C         C         1.0       0.9072962881097845  0.38598886919826997           0.17069879677678507          1.0000   
         C         C         1.0       0.9057589854364982  0.3519904393187238  0.16108692467112906          1.0000   
         C         C         1.0       0.8950309363099307  0.3276227939605512  0.18343471928037283          1.0000   
         C         C         1.0       0.8835180529308546  0.33622600146558396           0.21511959051726717          1.0000   
         C         C         1.0       0.8865058497478961  0.3691079573887316  0.22632236465546063          1.0000   
         C         C         1.0       0.9200785654793897  0.4144631021153443  0.14240339955770495          1.0000   
         C         C         1.0       0.960307618613211   0.4151232569925997  0.1512078914737379 1.0000   
         C         C         1.0       0.9823278562492884  0.3945617338063756  0.13370528002308438          1.0000   
         C         C         1.0       0.016263357257602307          0.39795841701973594          0.13725085181996344          1.0000   
         C         C         1.0       0.029844163517504185          0.4206287693473612 0.16020481968278844          1.0000   
         C         C         1.0       0.008719177696713043          0.4383743975505196 0.18218744040589022          1.0000   
         C         C         1.0       0.9738801576924925  0.4353836798083358  0.1774575901569078 1.0000   
         C         C         1.0       0.8769321095618604  0.3948946556756797  0.09502723851049939          1.0000   
         C         C         1.0       0.8669649436827035  0.39269044235275175           0.060723492591249435         1.0000   
         C         C         1.0       0.8860624176075503  0.4066704918602031  0.03430103705520193          1.0000   
         C         C         1.0       0.9179471840947577  0.4175062385010659  0.04194487605157593          1.0000   
         C         C         1.0       0.9284902876328983  0.4190598590072422  0.07593639881318807          1.0000   
         C         C         1.0       0.9079563529606361  0.40890187392989336           0.1027452740387338 1.0000   
         C         C         1.0       0.8756541210167532  0.40480449603219043           0.9947739637670037 1.0000   
         C         C         1.0       0.926964443362061   0.30666803086150835           0.9904631621843472 1.0000   
         C         C         1.0       0.8923030557910606  0.30930351590629857           0.9945394039898366 1.0000   
         C         C         1.0       0.8757900003325919  0.34034337311787555           0.9918131574253423 1.0000   
         C         C         1.0       0.8951123172268539  0.3687807474208207  0.9863008991353226 1.0000   
         C         C         1.0       0.9303609100360498  0.3661374753028821  0.9810624999925522 1.0000   
         C         C         1.0       0.9476560176762857  0.33384812383023055           0.98349403471356   1.0000   
         C         C         1.0       0.8887791247917675  0.4352694357476918  0.9731067709289853 1.0000   
         C         C         1.0       0.8852327267487001  0.4699891290614828  0.9853867804533555 1.0000   
         C         C         1.0       0.896662702929547   0.4956116443276069  0.9661366094074367 1.0000   
         C         C         1.0       0.9078017979228459  0.4916580185171781  0.9329881690199189 1.0000   
         C         C         1.0       0.9120206900137594  0.45784274998524044           0.9204158077718338 1.0000   
         C         C         1.0       0.9006495435365005  0.4308530240563038  0.939346360596639  1.0000   
         C         C         1.0       0.8262251848769897  0.3911292358683103  0.9534319204477396 1.0000   
         C         C         1.0       0.7927886998776703  0.3892313125775648  0.944245761664063  1.0000   
         C         C         1.0       0.7687009382047476  0.40040522991676564           0.9680174329415899 1.0000   
         C         C         1.0       0.7782876179725738  0.4165030678298145  0.9981486984152307 1.0000   
         C         C         1.0       0.812006189106337   0.4224824572093799  0.0048974812909767795        1.0000   
         C         C         1.0       0.836568491998911   0.4061882745565609  0.983842609526685  1.0000   
         H         H         1.0       0.8985622604849505  0.41994180625403366           0.21684080032390035          1.0000   
         H         H         1.0       0.9130599450215768  0.34772809860391857           0.1344732056609957 1.0000   
         H         H         1.0       0.8943193801462033  0.30045416372099615           0.17996852688393286          1.0000   
         H         H         1.0       0.8788101524533833  0.3771003131222643  0.25107988689489086          1.0000   
         H         H         1.0       0.9740081707762521  0.3725922402128545  0.11782812102864923          1.0000   
         H         H         1.0       0.03196183404089292           0.38078683114863887          0.1205327514981191 1.0000   
         H         H         1.0       0.020271652253686323          0.454814765610053  0.20214087899240307          1.0000   
         H         H         1.0       0.9564565840005107  0.450758247994729   0.1941198995070864 1.0000   
         H         H         1.0       0.8602660706182519  0.38530159303698147           0.11407930014923985          1.0000   
         H         H         1.0       0.8451320599570873  0.37968118493623876           0.05315962228589699          1.0000   
         H         H         1.0       0.9375315689209708  0.42609348060944496           0.02119826697840832          1.0000   
         H         H         1.0       0.9550001540810478  0.42811709542293985           0.07517559988644659          1.0000   
         H         H         1.0       0.8756873808440215  0.28766636801032613           0.999060403878879  1.0000   
         H         H         1.0       0.848579092530331   0.34043968200667557           0.001622269093576989         1.0000   
         H         H         1.0       0.9454540081400271  0.3890886433184466  0.9760111693682119 1.0000   
         H         H         1.0       0.9740257095749186  0.3283184910208332  0.9789393234883588 1.0000   
         H         H         1.0       0.8744438266797953  0.47350375657069366           0.011015421311673546         1.0000   
         H         H         1.0       0.8993093748735996  0.5196906512461137  0.9792461877778894 1.0000   
         H         H         1.0       0.9232336566318924  0.44978245817269935           0.8938011516824789 1.0000   
         H         H         1.0       0.9030358927030653  0.40455536983496654           0.928304322883874  1.0000   
         H         H         1.0       0.8458500238486674  0.37941236649764215           0.9358909852179084 1.0000   
         H         H         1.0       0.7878142640628649  0.3737564393257682  0.9213653844928517 1.0000   
         H         H         1.0       0.7627003362718979  0.42810063685125005           0.018041547630242016         1.0000   
         H         H         1.0       0.8197644199828386  0.43611630109714006           0.029027091260954485         1.0000   
         C         C         1.0       0.6429524436142543  0.5974830345285229  0.7844482421663654 1.0000   
         C         C         1.0       0.6594625093861157  0.5856366336183001  0.7551258041633525 1.0000   
         C         C         1.0       0.6897320654518067  0.5999440113649602  0.7436375109833092 1.0000   
         C         C         1.0       0.7017049270437952  0.6285295547931922  0.7582712921887156 1.0000   
         C         C         1.0       0.6842334804417971  0.6423303363494927  0.7873349780411434 1.0000   
         C         C         1.0       0.6545603572154894  0.6283066217518793  0.799270577328172  1.0000   
         H         H         1.0       0.6504450474684625  0.5642289484632623  0.7404681228415917 1.0000   
         H         H         1.0       0.7031310792255229  0.587017339325352   0.7228956384827014 1.0000   
         H         H         1.0       0.694912095201532   0.6646567618759178  0.8007307936619905 1.0000   
         H         H         1.0       0.6424293686088959  0.6403759125602492  0.8219025961333849 1.0000   
         C         C         1.0       0.7269354886116811  0.7044877428431628  0.7509984102927852 1.0000   
         C         C         1.0       0.7485806176878057  0.6781729806668951  0.7593903611536543 1.0000   
         C         C         1.0       0.7814679878987859  0.6873196734970011  0.7692661082299886 1.0000   
         C         C         1.0       0.7898296547698689  0.720633370282612   0.7726916163976398 1.0000   
         C         C         1.0       0.7693427763491645  0.7463246208001788  0.7603409154144972 1.0000   
         C         C         1.0       0.7380544878949199  0.738040521711613   0.751071090956457  1.0000   
         C         C         1.0       0.7395691704571078  0.6397583071309014  0.7493074854967834 1.0000   
         C         C         1.0       0.7476955990906617  0.641648108213952   0.7079803178711143 1.0000   
         C         C         1.0       0.781490427291761   0.6425700447146118  0.6963116732571086 1.0000   
         C         C         1.0       0.788788467346102   0.6505994872066853  0.6630826706300839 1.0000   
         C         C         1.0       0.763484068262825   0.6557844993106579  0.6399684651646198 1.0000   
         C         C         1.0       0.7298312125153975  0.6518442805432956  0.6495340453759135 1.0000   
         C         C         1.0       0.7223359238413692  0.6453043640205309  0.6832628439203074 1.0000   
         C         C         1.0       0.7579711501255425  0.6093913043752495  0.8026913888657746 1.0000   
         C         C         1.0       0.762751440051575   0.5793690382520749  0.8190317209122135 1.0000   
         C         C         1.0       0.770136986815754   0.5495391837499128  0.8016383205444566 1.0000   
         C         C         1.0       0.7762444117856545  0.5506266862505397  0.7664012534604661 1.0000   
         C         C         1.0       0.7695481277384318  0.5798927329204973  0.7494677501706885 1.0000   
         C         C         1.0       0.7608636430992883  0.6099681977968611  0.7678117022490552 1.0000   
         C         C         1.0       0.767742440840215   0.5135843847660784  0.8215301573287664 1.0000   
         C         C         1.0       0.773312128287236   0.42402381138792145           0.7570988482016074 1.0000   
         C         C         1.0       0.790698942777981   0.42372721955992104           0.7881991767792919 1.0000   
         C         C         1.0       0.7879286459708076  0.45254076591927483           0.8086212327890452 1.0000   
         C         C         1.0       0.7700932429688929  0.4802400043053421  0.7982398671666192 1.0000   
         C         C         1.0       0.7514690556768536  0.4783711472331972  0.7672773841916407 1.0000   
         C         C         1.0       0.7522087237311725  0.44976525952698576           0.7480048741114735 1.0000   
         C         C         1.0       0.7301997142017508  0.5080693434612137  0.8395691679463985 1.0000   
         C         C         1.0       0.7006424954319611  0.5256242470868246  0.828961560867947  1.0000   
         C         C         1.0       0.6700109776015463  0.5198513888490413  0.8440215913639562 1.0000   
         C         C         1.0       0.6662405041309521  0.49270812671135816           0.8660437347412137 1.0000   
         C         C         1.0       0.6940347806263101  0.47570615383730325           0.8773829739193504 1.0000   
         C         C         1.0       0.7261102083194109  0.48127346218450734           0.8637976902654161 1.0000   
         C         C         1.0       0.8349932013650696  0.5166631314807995  0.8303073103985457 1.0000   
         C         C         1.0       0.8627935329575868  0.5245611046466643  0.8499877052669811 1.0000   
         C         C         1.0       0.8601571709883175  0.5322587380658994  0.884253900132432  1.0000   
         C         C         1.0       0.827082561147836   0.5320668659966743  0.8990724019616924 1.0000   
         C         C         1.0       0.7992995868388578  0.5237638532684723  0.8790644162536914 1.0000   
         C         C         1.0       0.8017387848338408  0.5183249231875233  0.844071041335447  1.0000   
         H         H         1.0       0.7032178211395842  0.6980774562996205  0.7409039095612666 1.0000   
         H         H         1.0       0.800046061845563   0.668578032310556   0.7778441957286523 1.0000   
         H         H         1.0       0.8149238768254147  0.7253298232886354  0.7811935983062802 1.0000   
         H         H         1.0       0.7180846326437408  0.7561435791773149  0.7443548634343593 1.0000   
         H         H         1.0       0.8018293881204495  0.6358792945978531  0.7125281969562465 1.0000   
         H         H         1.0       0.8160774434320531  0.6529158802820555  0.6586704428617188 1.0000   
         H         H         1.0       0.7098398931689769  0.6511106307164015  0.630381496627906  1.0000   
         H         H         1.0       0.6959664235803892  0.6468348008274898  0.692120456045362  1.0000   
         H         H         1.0       0.747777469714966   0.6294337036404521  0.8206478325240824 1.0000   
         H         H         1.0       0.759695135107713   0.5797427498213332  0.845500421654653  1.0000   
         H         H         1.0       0.7848042364433356  0.528700129249756   0.7527729662718157 1.0000   
         H         H         1.0       0.768412046354236   0.5774143312120289  0.7229232569798582 1.0000   
         H         H         1.0       0.8080113176045338  0.4043109080573294  0.7970879527172297 1.0000   
         H         H         1.0       0.8038502587766502  0.4523881175840006  0.8329142415542515 1.0000   
         H         H         1.0       0.7328765361029081  0.4986294336121903  0.7599588983204032 1.0000   
         H         H         1.0       0.7427131128965724  0.44751739525499745           0.722224354847976  1.0000   
         H         H         1.0       0.7006314027420767  0.5444466282884228  0.8084145509177023 1.0000   
         H         H         1.0       0.6492817200357053  0.5345618637590318  0.8375669544833696 1.0000   
         H         H         1.0       0.6918987786156424  0.4566263530539871  0.8973199178585551 1.0000   
         H         H         1.0       0.7459044189845604  0.4659295172496183  0.8717762545419488 1.0000   
         H         H         1.0       0.8407044089056956  0.5075533486929782  0.8038023067506344 1.0000   
         H         H         1.0       0.8890506714776266  0.5232908121518456  0.8380943745980736 1.0000   
         H         H         1.0       0.8223726912060809  0.5402546456954789  0.925370148218877  1.0000   
         H         H         1.0       0.7753674360800129  0.5288329240910836  0.8916453205057504 1.0000   
         C         C         1.0       0.34311175848062986           0.18686024050610361          0.1210531550764016 1.0000   
         C         C         1.0       0.3759548848323885  0.19217828031460732           0.1302052178199712 1.0000   
         C         C         1.0       0.39270835631832895           0.221946212164231  0.12038862942667584          1.0000   
         C         C         1.0       0.3743144484759301  0.249536379062625   0.108051202777254  1.0000   
         C         C         1.0       0.33978916788736163           0.2450868150895344 0.10306218039220144          1.0000   
         C         C         1.0       0.32550311163901446           0.2122482532742068 0.10447884843766306          1.0000   
         H         H         1.0       0.3909105843877665  0.17441585393941236           0.14595524663569334          1.0000   
         H         H         1.0       0.4161620739388564  0.2266388302644845  0.132965609401551  1.0000   
         H         H         1.0       0.32385228604467925           0.2673084606532574 0.10067463318974856          1.0000   
         H         H         1.0       0.29842475519788025           0.2089711009020114 0.10105114256450798          1.0000   
         C         C         1.0       0.3716397546620416  0.2987047038814714  0.041427561168349  1.0000   
         C         C         1.0       0.373987512993394   0.31223226432963036           0.07531639694243464          1.0000   
         C         C         1.0       0.3658782898276877  0.34681180710025633           0.07902048418507013          1.0000   
         C         C         1.0       0.35621049384304715           0.3654739981350473 0.050801682638214274         1.0000   
         C         C         1.0       0.3520161384831725  0.34961321074247304           0.01821107140700362          1.0000   
         C         C         1.0       0.36082986681772006           0.3170167850964259 0.013184170830996544         1.0000   
         C         C         1.0       0.3894146662897835  0.2876089692276182  0.10550613887701203          1.0000   
         C         C         1.0       0.42713756350387777           0.2888895147803958 0.09771095125983521          1.0000   
         C         C         1.0       0.4453283427212546  0.3171885338608967  0.10822308830757955          1.0000   
         C         C         1.0       0.47870065292633024           0.3217627841653955 0.097917061446635  1.0000   
         C         C         1.0       0.49371878133659247           0.2994450981032671 0.07489622239362692          1.0000   
         C         C         1.0       0.4761105423831809  0.2712738294494483  0.0640632188159318 1.0000   
         C         C         1.0       0.44305926341138757           0.26578328869757767          0.075032402570258  1.0000   
         C         C         1.0       0.351941635532106   0.31617059902624856           0.15417747780860325          1.0000   
         C         C         1.0       0.3390407945468754  0.31469775104784337           0.18680802812790784          1.0000   
         C         C         1.0       0.35592452060238244           0.29469552926499076          0.21155168145074926          1.0000   
         C         C         1.0       0.38887031026060553           0.28469019343922985          0.20505566391960459          1.0000   
         C         C         1.0       0.4021079762964627  0.28752184794523855           0.1729640663195736 1.0000   
         C         C         1.0       0.3820228278495607  0.29914015089015894           0.1451473506465384 1.0000   
         C         C         1.0       0.3363541086976306  0.283168601760673   0.24671104631684806          1.0000   
         C         C         1.0       0.3980816379106691  0.3552525774616953  0.306690892297746  1.0000   
         C         C         1.0       0.3672189081238789  0.3651154311681997  0.29221184037094455          1.0000   
         C         C         1.0       0.3479659167384878  0.34268844311996344           0.27490782485229137          1.0000   
         C         C         1.0       0.3556981212639288  0.30887798235309766           0.27391834927210257          1.0000   
         C         C         1.0       0.3861859477584924  0.29850179910705654           0.28876130157718816          1.0000   
         C         C         1.0       0.4081903630025731  0.3213336012680436  0.30480595729993254          1.0000   
         C         C         1.0       0.34048397866440455           0.24475875078380718          0.2555285978122912 1.0000   
         C         C         1.0       0.33493189889993247           0.22187646219363583          0.22804320595290684          1.0000   
         C         C         1.0       0.31898793061051556           0.19225319927461493          0.23145917171150887          1.0000   
         C         C         1.0       0.3117306568722575  0.1812146754038478  0.26481252446498565          1.0000   
         C         C         1.0       0.32319248572830406           0.19932810807960058          0.2934313612652597 1.0000   
         C         C         1.0       0.33661779243475926           0.23164715067807493          0.28774769867605027          1.0000   
         C         C         1.0       0.2763682005546891  0.28756638685013636           0.27547282902598036          1.0000   
         C         C         1.0       0.24186233353174702           0.28091343477102426          0.2755947586542493 1.0000   
         C         C         1.0       0.22491520897336845           0.2727855321248366 0.24507657776945002          1.0000   
         C         C         1.0       0.24296050939177746           0.2673956386657143 0.21485814178889975          1.0000   
         C         C         1.0       0.2764528827328585  0.27522885598160846           0.21492947957381464          1.0000   
         C         C         1.0       0.2941694281912865  0.2848604090518822  0.24521083017010814          1.0000   
         H         H         1.0       0.372647928143784   0.2728045977494621  0.03673051829574936          1.0000   
         H         H         1.0       0.36875746801061515           0.3619171763521898 0.10564954156137382          1.0000   
         H         H         1.0       0.35050218520608467           0.3924778240075557 0.05447607112651687          1.0000   
         H         H         1.0       0.35836591855734956           0.3042607666992734 0.9895301234296777 1.0000   
         H         H         1.0       0.43673549146585844           0.33648193159105777          0.12651296851049637          1.0000   
         H         H         1.0       0.49298017842190006           0.3439825355878341 0.10686981672930558          1.0000   
         H         H         1.0       0.4863166513478272  0.2548001794791419  0.04523868006468135          1.0000   
         H         H         1.0       0.4265608268974354  0.24740382342963294           0.059876239624628624         1.0000   
         H         H         1.0       0.3334162219807924  0.3233311229686328  0.13319071001077545          1.0000   
         H         H         1.0       0.31436527508793766           0.32565313283114666          0.19019661503112584          1.0000   
         H         H         1.0       0.40352196818983693           0.27373834836626243          0.22444124353514003          1.0000   
         H         H         1.0       0.4271253402376086  0.2747340450967018  0.16872024766926835          1.0000   
         H         H         1.0       0.3619457215655027  0.39301256541748475           0.2913047350488932 1.0000   
         H         H         1.0       0.32963982801933867           0.353853740558515  0.25750233598268996          1.0000   
         H         H         1.0       0.3936870358621333  0.27142044992699327           0.285354081393863  1.0000   
         H         H         1.0       0.43248728912416556           0.3096877258850081 0.3150391162417372 1.0000   
         H         H         1.0       0.3369915287656221  0.23178261527491772           0.20230079195785458          1.0000   
         H         H         1.0       0.31091752114849225           0.1771035948325282 0.2089004222447434 1.0000   
         H         H         1.0       0.3175776897859676  0.1909366729113771  0.3186908436043769 1.0000   
         H         H         1.0       0.34105021126817836           0.2470284545602572 0.3090206765145684 1.0000   
         H         H         1.0       0.2898068718175421  0.29084497032718243           0.29859768860982355          1.0000   
         H         H         1.0       0.22737373772069022           0.28212658056964235          0.298259481298762  1.0000   
         H         H         1.0       0.23389469177150743           0.25869290424062946          0.1900987527070661 1.0000   
         H         H         1.0       0.2914014374199996  0.27018362170370575           0.1917823605783692 1.0000   
         C         C         1.0       0.0810953852077132  0.4040906455307197  0.22648003315812032          1.0000   
         C         C         1.0       0.09382992001051527           0.4334938114338173 0.2398549739710548 1.0000   
         C         C         1.0       0.08158361833991212           0.4470443919787947 0.2704474285928165 1.0000   
         C         C         1.0       0.0565688281870762  0.43162752837410023           0.2897865492276867 1.0000   
         C         C         1.0       0.043605399106229514          0.400759602392352  0.2763055557642213 1.0000   
         C         C         1.0       0.05744528804332627           0.3857432557601998 0.2463913493451404 1.0000   
         H         H         1.0       0.11325781390788414           0.44733185921584745          0.22556673965787208          1.0000   
         H         H         1.0       0.09475113024142989           0.4703582122277995 0.27880589086453145          1.0000   
         H         H         1.0       0.02505645516757027           0.38568257138386447          0.28893298843559817          1.0000   
         H         H         1.0       0.045858991498096024          0.36246629878820696          0.23648934724949203          1.0000   
         C         C         1.0       0.9835375333695083  0.43937709565415706           0.3091800547482001 1.0000   
         C         C         1.0       0.007530893782418779          0.4391593739592639 0.3354778381012919 1.0000   
         C         C         1.0       0.9954261842274252  0.4419183042011543  0.3691150406629739 1.0000   
         C         C         1.0       0.9616252697828648  0.4375843255216214  0.3751196933970106 1.0000   
         C         C         1.0       0.9376100878355484  0.4333735653642962  0.34954280658806147          1.0000   
         C         C         1.0       0.9495445734388741  0.43434503122492474           0.31575238185182153          1.0000   
         C         C         1.0       0.04685473917564709           0.4452389615536398 0.32782420548153784          1.0000   
         C         C         1.0       0.04996972046397774           0.4856791478154377 0.33359711093502004          1.0000   
         C         C         1.0       0.05639483567716552           0.4999763975294116 0.36576470879368145          1.0000   
         C         C         1.0       0.05886275266559782           0.5343144971140885 0.3715940007193633 1.0000   
         C         C         1.0       0.05581802196337837           0.5555560121674527 0.3431282712888672 1.0000   
         C         C         1.0       0.047751741143723825          0.5432653682572599 0.31153635176574607          1.0000   
         C         C         1.0       0.04244466857124851           0.5086103857007916 0.30668026364617457          1.0000   
         C         C         1.0       0.06543271631896563           0.39444186936409176          0.36467139266035065          1.0000   
         C         C         1.0       0.08870085280191627           0.37102160315802074          0.37657801374486816          1.0000   
         C         C         1.0       0.12402731860695095           0.37686344712123526          0.3736877127936294 1.0000   
         C         C         1.0       0.1328944202836757  0.4080910800506538  0.3605286082103531 1.0000   
         C         C         1.0       0.10913601174569997           0.4303226386472638 0.34714882505316164          1.0000   
         C         C         1.0       0.07483749220247482           0.42407183807771914          0.34970604408204603          1.0000   
         C         C         1.0       0.15357889149277318           0.3479543212187193 0.37161679602364606          1.0000   
         C         C         1.0       0.2563610795928113  0.3618764454333001  0.4162639881191375 1.0000   
         C         C         1.0       0.22932840873316232           0.3809077146995752 0.42900530495614436          1.0000   
         C         C         1.0       0.19813282915559136           0.3754488645849094 0.41415143924797576          1.0000   
         C         C         1.0       0.19160021015329942           0.3530052321462258 0.38557992375679206          1.0000   
         C         C         1.0       0.21752925385040905           0.33149782356725666          0.3780494090606213 1.0000   
         C         C         1.0       0.24946671263159184           0.33684679360776737          0.3926541772482741 1.0000   
         C         C         1.0       0.15205424733734987           0.33771105298821213          0.332219392548017  1.0000   
         C         C         1.0       0.17770319811403426           0.3494443063255941 0.3108093301248429 1.0000   
         C         C         1.0       0.18129399778110575           0.3396833853674973 0.27806502597557303          1.0000   
         C         C         1.0       0.15634258723073088           0.3182425812242861 0.2654206052327653 1.0000   
         C         C         1.0       0.12887072100730323           0.3085886180634318 0.28367180684251486          1.0000   
         C         C         1.0       0.12647336874552287           0.31977842809456625          0.31731900317756917          1.0000   
         C         C         1.0       0.13247725463530022           0.32424644684824966          0.43066894901034003          1.0000   
         C         C         1.0       0.12629892077902669           0.30105100238557214          0.4543464195069028 1.0000   
         C         C         1.0       0.13113425230215794           0.2676631435912604 0.4457641744637971 1.0000   
         C         C         1.0       0.1441020541195513  0.25871176124521833           0.4135180053376678 1.0000   
         C         C         1.0       0.15071794693073218           0.28266420399597025          0.3889275262902732 1.0000   
         C         C         1.0       0.14362159107840347           0.3167909783866216 0.39654370174734327          1.0000   
         H         H         1.0       0.9897055354045838  0.44512374842078556           0.28292607282966037          1.0000   
         H         H         1.0       0.012929080425440942          0.44633562629838885          0.39166988418069315          1.0000   
         H         H         1.0       0.9525471771905482  0.4404260603054388  0.4017157285192833 1.0000   
         H         H         1.0       0.9321319808825949  0.4287480373338017  0.29545661580791904          1.0000   
         H         H         1.0       0.06310998328059747           0.48063945845270056          0.38560016498680316          1.0000   
         H         H         1.0       0.06583036625381888           0.5429557021637684 0.39565787143444553          1.0000   
         H         H         1.0       0.044921702478825765          0.5585055555983958 0.2878696402361952 1.0000   
         H         H         1.0       0.036824315451528866          0.497018360742591  0.281222484467275  1.0000   
         H         H         1.0       0.03980979814588248           0.382420681971264  0.36631170957767967          1.0000   
         H         H         1.0       0.0807967474084347  0.34706753815948127           0.38430506272724746          1.0000   
         H         H         1.0       0.15894163289558957           0.4144942358321286 0.35245351534168806          1.0000   
         H         H         1.0       0.11724849776396334           0.4536169354752098 0.3341746293201293 1.0000   
         H         H         1.0       0.23471895887340002           0.4013413891181996 0.449260667643095  1.0000   
         H         H         1.0       0.17772316642165392           0.3906046833777139 0.4248491809167574 1.0000   
         H         H         1.0       0.21284710088007067           0.31402505005831316          0.35774316429724723          1.0000   
         H         H         1.0       0.2677122825531686  0.3190556124451288  0.3848337081378929 1.0000   
         H         H         1.0       0.19476979450606116           0.36714193317520594          0.321213210559507  1.0000   
         H         H         1.0       0.20509211766010116           0.3464962268177132 0.2666881860498985 1.0000   
         H         H         1.0       0.1100372802645689  0.29108401522730093           0.2724826563725558 1.0000   
         H         H         1.0       0.10544554608901033           0.30999896313789777          0.33323902387487436          1.0000   
         H         H         1.0       0.12512328115747431           0.35048771685364033          0.4360147312397641 1.0000   
         H         H         1.0       0.11300414445949848           0.307832417048318  0.4785343684736171 1.0000   
         H         H         1.0       0.15849969456310206           0.23295610342656695          0.4091218157698561 1.0000   
         H         H         1.0       0.16820529764236006           0.27550290061970845          0.3677288527620027 1.0000   
         C         C         1.0       0.212410860425999   0.08445023319617416           0.41557180275075467          1.0000   
         C         C         1.0       0.2128971476990553  0.09574696874724184           0.4480523798332647 1.0000   
         C         C         1.0       0.24004702138672152           0.08850492229720375          0.4699392946524514 1.0000   
         C         C         1.0       0.26676340875020443           0.0698352659900299 0.4590531350951209 1.0000   
         C         C         1.0       0.2658513168612037  0.057794637821340755         0.42611450607811346          1.0000   
         C         C         1.0       0.23942248711941552           0.06561308522627869          0.40198900033157686          1.0000   
         H         H         1.0       0.1912500821136304  0.1105838144904553  0.45680266630713307          1.0000   
         H         H         1.0       0.2391854252542156  0.09900871163074304           0.49587884794699644          1.0000   
         H         H         1.0       0.28731004287533485           0.043102369617024516         0.4147181949475798 1.0000   
         H         H         1.0       0.23993714288583848           0.05750028369057315          0.3743163720751973 1.0000   
         C         C         1.0       0.32116935970907196           0.009592298444066616         0.4639323275455952 1.0000   
         C         C         1.0       0.3299403366255767  0.04145025976257366           0.4766976107494256 1.0000   
         C         C         1.0       0.362952418986726   0.0480564241892254  0.4876166365562835 1.0000   
         C         C         1.0       0.38755261573872035           0.02394144035496648          0.48071209676243976          1.0000   
         C         C         1.0       0.37868799531187325           0.9936492211310407 0.46753387175408007          1.0000   
         C         C         1.0       0.3450265189322711  0.9856623421806211  0.45954904138871744          1.0000   
         C         C         1.0       0.3001064777831622  0.06900458697486721           0.484448916051309  1.0000   
         C         C         1.0       0.28928002197599695           0.056284515842962575         0.5219663924927251 1.0000   
         C         C         1.0       0.3068228722043712  0.06654811405442672           0.5515836089450206 1.0000   
         C         C         1.0       0.2933578790610588  0.05934990578162925           0.5832159372533282 1.0000   
         C         C         1.0       0.2629724694059947  0.04286993327965383           0.5863672248656225 1.0000   
         C         C         1.0       0.2471385799658501  0.029595335788636712         0.5573369455547263 1.0000   
         C         C         1.0       0.25952726706639057           0.036258316769042453         0.5252081833079426 1.0000   
         C         C         1.0       0.3279850859413339  0.1144848367100012  0.4474692579813553 1.0000   
         C         C         1.0       0.32677105788812527           0.14777399379213568          0.4357048929033987 1.0000   
         C         C         1.0       0.3064092980007301  0.1707231795110118  0.45341345380086495          1.0000   
         C         C         1.0       0.30478679859769164           0.16595085016162767          0.4893422201518094 1.0000   
         C         C         1.0       0.30654356980268455           0.13383047916364005          0.5006873729963244 1.0000   
         C         C         1.0       0.3129358977395263  0.10664532145521796           0.47758851438867356          1.0000   
         C         C         1.0       0.289785853454535   0.20184020327899366           0.4345598702939107 1.0000   
         C         C         1.0       0.36938847061638785           0.27753582499297896          0.42178635252895436          1.0000   
         C         C         1.0       0.3662234983982144  0.25286667399967044           0.39739698882996266          1.0000   
         C         C         1.0       0.34041081162642783           0.22940473560374194          0.4003274465963765 1.0000   
         C         C         1.0       0.3198342016716504  0.22834606636931587           0.4297130315049856 1.0000   
         C         C         1.0       0.3279872307465587  0.25012265651089494           0.4553452902376253 1.0000   
         C         C         1.0       0.3507347664615415  0.27509933007366805           0.45013177677065275          1.0000   
         C         C         1.0       0.2554569776212694  0.21416405121244209           0.4526294951568779 1.0000   
         C         C         1.0       0.23265293634219467           0.18971852776890505          0.4647539819328721 1.0000   
         C         C         1.0       0.20332215002520812           0.1990438374179077 0.48323606904343197          1.0000   
         C         C         1.0       0.19484924735144582           0.23377882027799327          0.48400315101506186          1.0000   
         C         C         1.0       0.21378250552530892           0.25718863101689743          0.46692635659401005          1.0000   
         C         C         1.0       0.24414283310152599           0.24768030029421553          0.45159812363864493          1.0000   
         C         C         1.0       0.2621676515247621  0.21835813774172771           0.3738892447476899 1.0000   
         C         C         1.0       0.2526680727014546  0.2112297275515997  0.3409207015517944 1.0000   
         C         C         1.0       0.25177393775274604           0.17793949869949463          0.32875253313622527          1.0000   
         C         C         1.0       0.255632878784427   0.15116141203292008           0.35224869812500587          1.0000   
         C         C         1.0       0.26512421315651263           0.1595308664307917 0.3861506897661982 1.0000   
         C         C         1.0       0.27214840950971114           0.1929534676255131 0.3968316040532316 1.0000   
         H         H         1.0       0.2958696562971051  0.0021379458430996756        0.4572680669773289 1.0000   
         H         H         1.0       0.37152202535960294           0.07181553495629875          0.5003586126371804 1.0000   
         H         H         1.0       0.41388345061328036           0.03171547162024502          0.48378048706478743          1.0000   
         H         H         1.0       0.33902456635436573           0.9607208031407434 0.4465411234540551 1.0000   
         H         H         1.0       0.3298645223487947  0.08195729348710977           0.550104350711377  1.0000   
         H         H         1.0       0.3060125316628431  0.06770625568888781           0.6078628045395861 1.0000   
         H         H         1.0       0.22569416281223856           0.011205380071414694         0.5584953977254783 1.0000   
         H         H         1.0       0.24926158629655532           0.02220534249185846          0.5032862732824281 1.0000   
         H         H         1.0       0.33730024241504314           0.09410587092717078          0.4307498880126707 1.0000   
         H         H         1.0       0.3342667342631072  0.15209181392404847           0.40972498837051324          1.0000   
         H         H         1.0       0.29827692984533033           0.1873786943073352 0.5077751926782662 1.0000   
         H         H         1.0       0.29897485362608794           0.12794707824944085          0.5272860107353904 1.0000   
         H         H         1.0       0.38383772360301854           0.25082200821273387          0.37609833176921786          1.0000   
         H         H         1.0       0.33532088764285534           0.2090947298779219 0.3815530432455695 1.0000   
         H         H         1.0       0.31545072855361284           0.250825374593577  0.4803312376511648 1.0000   
         H         H         1.0       0.35710677988797873           0.29085587443581656          0.47140657061246344          1.0000   
         H         H         1.0       0.2365219073519014  0.16284331287486503           0.4596040648750896 1.0000   
         H         H         1.0       0.1883529764557822  0.1781159237676823  0.49548104092275747          1.0000   
         H         H         1.0       0.20720879061955413           0.2836238989144839 0.4694506805482205 1.0000   
         H         H         1.0       0.25854940058012144           0.2659971706175374 0.4375761378256943 1.0000   
         H         H         1.0       0.2673959194952634  0.24552567892390334           0.379571741474353  1.0000   
         H         H         1.0       0.2511462358982935  0.23232572035137358           0.32419552513105065          1.0000   
         H         H         1.0       0.2506541393924211  0.12432617955524497           0.3437238775056748 1.0000   
         H         H         1.0       0.27089075344944885           0.13909257991965615          0.404238797876404  1.0000   
         C         C         1.0       0.22043652632792363           0.24668902660454434          0.9032171996361277 1.0000   
         C         C         1.0       0.21016008543210268           0.27879116730679926          0.8908041514301328 1.0000   
         C         C         1.0       0.1956894330748235  0.2810268427323716  0.8588271269625288 1.0000   
         C         C         1.0       0.1870057420927077  0.2519511404529646  0.84076411665491   1.0000   
         C         C         1.0       0.19653882819364782           0.22009033837621628          0.8553175551281914 1.0000   
         C         C         1.0       0.21269392477154334           0.2170453774950501 0.884093297046932  1.0000   
         H         H         1.0       0.21547186054700213           0.3028808895404578 0.9043297997105353 1.0000   
         H         H         1.0       0.186585626430631   0.3049604046011557  0.8502260410891099 1.0000   
         H         H         1.0       0.18985688535868261           0.19598550479588633          0.8440747321761934 1.0000   
         H         H         1.0       0.21929347130199017           0.192189959516552  0.8946798543361034 1.0000   
         C         C         1.0       0.2048801744521192  0.21887914121829033           0.7724802485463724 1.0000   
         C         C         1.0       0.1727389643558046  0.23251481172936314           0.7757990603858443 1.0000   
         C         C         1.0       0.15187367974900273           0.2294351349202468 0.7466102313619343 1.0000   
         C         C         1.0       0.15988109860677133           0.20835906279198066          0.7208826548500251 1.0000   
         C         C         1.0       0.19127981618121778           0.19272315214409946          0.7202776892103185 1.0000   
         C         C         1.0       0.21360461097482888           0.1962781749754238 0.7472104483263822 1.0000   
         C         C         1.0       0.1630926736697181  0.2552081090281356  0.8072187757554113 1.0000   
         C         C         1.0       0.16498738821725356           0.2930596788724594 0.7890351380310484 1.0000   
         C         C         1.0       0.1356289980645434  0.30995623706976355           0.7783422547503253 1.0000   
         C         C         1.0       0.13917789679098536           0.3401792221870066 0.7610750239148583 1.0000   
         C         C         1.0       0.17023774884804746           0.3537821114859216 0.7555778272897188 1.0000   
         C         C         1.0       0.19845763361144847           0.3349369068944409 0.7623904552424199 1.0000   
         C         C         1.0       0.1969790592610417  0.30634854678478246           0.7797991132589744 1.0000   
         C         C         1.0       0.11011739151107992           0.21459965550305737          0.8108885929558064 1.0000   
         C         C         1.0       0.07368994764349837           0.21035405686991723          0.815664177217057  1.0000   
         C         C         1.0       0.05609673463055498           0.23473116564839314          0.83300468693162   1.0000   
         C         C         1.0       0.07425155560619534           0.26155344244502354          0.8484774181591551 1.0000   
         C         C         1.0       0.10804379598806078           0.26665499279795574          0.8449199256237008 1.0000   
         C         C         1.0       0.12578100235943085           0.24404626063604445          0.8226889356294028 1.0000   
         C         C         1.0       0.014989776698346224          0.2361171325386889 0.8303809967496344 1.0000   
         C         C         1.0       0.010983647515449446          0.3083210699755659 0.7439097709569837 1.0000   
         C         C         1.0       0.01302205305481463           0.27336585546589176          0.7372191603408851 1.0000   
         C         C         1.0       0.013485015641578446          0.25165056927675045          0.764556243515592  1.0000   
         C         C         1.0       0.009283981014797993          0.26280363501184645          0.7981298300650784 1.0000   
         C         C         1.0       0.010738110263492251          0.2962283298028674 0.8037204599086794 1.0000   
         C         C         1.0       0.01198619816887625           0.3192639612788275 0.7771278288603619 1.0000   
         C         C         1.0       0.9976416333554466  0.2506290199513079  0.8650179642475312 1.0000   
         C         C         1.0       0.010930402294089259          0.24126246842134969          0.8971001944133477 1.0000   
         C         C         1.0       0.9909532267857097  0.24248475347421392           0.9264995198565852 1.0000   
         C         C         1.0       0.9570363575678063  0.25415650345105584           0.9265100598715897 1.0000   
         C         C         1.0       0.9438073521775053  0.2640520949135385  0.8950760451365196 1.0000   
         C         C         1.0       0.9633625053420368  0.26215933033299443           0.8647753646881632 1.0000   
         C         C         1.0       0.9679250326674461  0.1958892205821101  0.8061721549011956 1.0000   
         C         C         1.0       0.9513058854908286  0.16597070648636608           0.8045688598142435 1.0000   
         C         C         1.0       0.9611909841997881  0.13824872458119758           0.82347833891396   1.0000   
         C         C         1.0       0.9869572468763212  0.14279244529951998           0.8465055933804803 1.0000   
         C         C         1.0       0.004495205954022197          0.17271508785261697          0.8493115621886685 1.0000   
         C         C         1.0       0.9955195871912959  0.20007945011870118           0.827728218152174  1.0000   
         H         H         1.0       0.22639852894668558           0.22477876673983566          0.7890641843708472 1.0000   
         H         H         1.0       0.12920419715688267           0.24502773979680822          0.7414565547804756 1.0000   
         H         H         1.0       0.13924080120791688           0.20632655252455942          0.7001140083564318 1.0000   
         H         H         1.0       0.2391311134798143  0.186854956129289   0.7450327788749399 1.0000   
         H         H         1.0       0.11254924112642958           0.295753400426833  0.7801592299680098 1.0000   
         H         H         1.0       0.1156842073294844  0.35249508898241144           0.7531787775166214 1.0000   
         H         H         1.0       0.2234926257923277  0.3421319946434811  0.7514609830784342 1.0000   
         H         H         1.0       0.22181953580002456           0.2935220343507299 0.7829432442195497 1.0000   
         H         H         1.0       0.1221738308706098  0.194104122314791   0.7969135500370034 1.0000   
         H         H         1.0       0.06254165572256014           0.18821449888154318          0.8058318259009283 1.0000   
         H         H         1.0       0.0641893374682736  0.2814587435775166  0.8628142726407952 1.0000   
         H         H         1.0       0.1197062115603805  0.2879756448836755  0.8579450771932855 1.0000   
         H         H         1.0       0.014253241262415228          0.263136465004971  0.7108266079074439 1.0000   
         H         H         1.0       0.01285917412273685           0.22370964482770678          0.7595746440887192 1.0000   
         H         H         1.0       0.009584531611472435          0.3068233400370853 0.8299696208817384 1.0000   
         H         H         1.0       0.01518382826858522           0.3458992628610601 0.7826033745135101 1.0000   
         H         H         1.0       0.03636144345274839           0.23073461730036612          0.9007503653678901 1.0000   
         H         H         1.0       0.9992232491256983  0.2266960101922799  0.9469055441394009 1.0000   
         H         H         1.0       0.9165307360924897  0.2705533902114321  0.8975952423299208 1.0000   
         H         H         1.0       0.9529957443446914  0.2682862314887897  0.8395433782397766 1.0000   
         H         H         1.0       0.9568230167314864  0.21692230729508627           0.7914282934299655 1.0000   
         H         H         1.0       0.9299814355189294  0.16943404671903406           0.7878725567396865 1.0000   
         H         H         1.0       0.9944461670757233  0.12392658601373897           0.8648105118738607 1.0000   
         H         H         1.0       0.023293103121001746          0.17742644532004953          0.8700719615938173 1.0000   
         C         C         1.0       0.3399586120797085  0.39455405691877465           0.930799121319936  1.0000   
         C         C         1.0       0.3575965398339361  0.4223454114435423  0.9211593135601378 1.0000   
         C         C         1.0       0.3446548407826272  0.4414526743621982  0.8936110722194982 1.0000   
         C         C         1.0       0.31335408263851644           0.43371119325956653          0.8793903676299961 1.0000   
         C         C         1.0       0.29785203052127257           0.4030212444543287 0.8916476303241111 1.0000   
         C         C         1.0       0.3114543743408423  0.38368844736433444           0.915890237072404  1.0000   
         H         H         1.0       0.38225357046516034           0.42735874744022945          0.9334445232687805 1.0000   
         H         H         1.0       0.3559452889989127  0.46553121574066014           0.884475777836229  1.0000   
         H         H         1.0       0.2723973598184549  0.3984383160658712  0.8839636838452807 1.0000   
         H         H         1.0       0.2977549537518103  0.360005045512552   0.9233814886796632 1.0000   
         C         C         1.0       0.2721004103148848  0.40925917686705726           0.8138610075861206 1.0000   
         C         C         1.0       0.26659725720714866           0.4392174880974179 0.8303056043458622 1.0000   
         C         C         1.0       0.2376855837504311  0.45821237361016903           0.820325234865303  1.0000   
         C         C         1.0       0.21799600847507986           0.4472156295325777 0.7929786730291579 1.0000   
         C         C         1.0       0.22667566366146022           0.41827214197216667          0.7731190357082066 1.0000   
         C         C         1.0       0.2545393231111717  0.39945004356007247           0.7835560696121263 1.0000   
         C         C         1.0       0.2961765492331488  0.45665151453521435           0.8517841396987466 1.0000   
         C         C         1.0       0.32145348566669063           0.46271430863422114          0.8191617980631165 1.0000   
         C         C         1.0       0.307992725739146   0.4845600422280975  0.7932319932244214 1.0000   
         C         C         1.0       0.3194032526149586  0.48099641578029523           0.7593142861869479 1.0000   
         C         C         1.0       0.3456499156274046  0.45911210944244574           0.7518537614815785 1.0000   
         C         C         1.0       0.3621859775729413  0.4423252409311515  0.7769253844936383 1.0000   
         C         C         1.0       0.34936750807009737           0.44314000918851454          0.8097967699435762 1.0000   
         C         C         1.0       0.2570321819708837  0.49006305924540866           0.8952272545456219 1.0000   
         C         C         1.0       0.2437162137274875  0.5186482037531127  0.909632523618643  1.0000   
         C         C         1.0       0.25847680904801174           0.5504681409063776 0.9038950958492582 1.0000   
         C         C         1.0       0.2865603916769594  0.5515440957791239  0.8825306555587624 1.0000   
         C         C         1.0       0.3002041948388797  0.5225670514470825  0.8681089881265751 1.0000   
         C         C         1.0       0.28550065039290246           0.490485846374773  0.8735057185465745 1.0000   
         C         C         1.0       0.24089739518667355           0.5847989718113905 0.9176829253006228 1.0000   
         C         C         1.0       0.1648057600577742  0.5865008584213205  0.8342670426691792 1.0000   
         C         C         1.0       0.1576336007944625  0.5717200480114081  0.8652316608552431 1.0000   
         C         C         1.0       0.1803643339690696  0.5748046292340551  0.8930932188741011 1.0000   
         C         C         1.0       0.21319545491183953           0.589513260619678  0.8878587456869487 1.0000   
         C         C         1.0       0.22006354276136528           0.6025197845400123 0.8555118767349128 1.0000   
         C         C         1.0       0.196810015052865   0.6015991479998786  0.8299875007658503 1.0000   
         C         C         1.0       0.2661859185575088  0.6167107244844325  0.921254690956533  1.0000   
         C         C         1.0       0.2995425510280545  0.6148312507265765  0.9356471943777496 1.0000   
         C         C         1.0       0.3199327574560261  0.6436556113076637  0.9388066390739219 1.0000   
         C         C         1.0       0.30815257353126596           0.6753726462132049 0.9279681057790347 1.0000   
         C         C         1.0       0.27440699581505335           0.6765064362445536 0.9162614021768822 1.0000   
         C         C         1.0       0.25403171126485374           0.6493508333623252 0.9170858889648705 1.0000   
         C         C         1.0       0.20398847475600076           0.6057882953311483 0.9674587903495421 1.0000   
         C         C         1.0       0.19450594888614475           0.6083682874868369 0.001594523475726417         1.0000   
         C         C         1.0       0.21033501299367405           0.5881587009377717 0.02631001255525689          1.0000   
         C         C         1.0       0.23762588924433023           0.5687673164650728 0.016583033305644035         1.0000   
         C         C         1.0       0.24679744895085595           0.56512854537335   0.9822684043620841 1.0000   
         C         C         1.0       0.22818709094703066           0.5830209511411805 0.9569602632699532 1.0000   
         H         H         1.0       0.2965434557843381  0.3976663208506845  0.8193337313374847 1.0000   
         H         H         1.0       0.2315763157682351  0.48483016901535464           0.8280432941194452 1.0000   
         H         H         1.0       0.19588444744330108           0.4621687686482482 0.7847522497680626 1.0000   
         H         H         1.0       0.26150338431520354           0.37642775290071573          0.7692907650006792 1.0000   
         H         H         1.0       0.28757738877696015           0.5023637671012007 0.7983314811686694 1.0000   
         H         H         1.0       0.3071882725574546  0.49681083413333765           0.7394737499336157 1.0000   
         H         H         1.0       0.3824335513642761  0.4240753361944028  0.7733391238233522 1.0000   
         H         H         1.0       0.35977760960616006           0.42454107831325605          0.8279768109971996 1.0000   
         H         H         1.0       0.24521836471925273           0.465538086157757  0.9013403357001794 1.0000   
         H         H         1.0       0.21987568851456618           0.5188367010467403 0.925590092101638  1.0000   
         H         H         1.0       0.2979137829261651  0.5756391874201984  0.876301955994936  1.0000   
         H         H         1.0       0.322229246124897   0.5284434513109798  0.8509343511364055 1.0000   
         H         H         1.0       0.13522827053149966           0.5565303866804865 0.868829002351312  1.0000   
         H         H         1.0       0.17219488570163347           0.561836348857658  0.9171750845732747 1.0000   
         H         H         1.0       0.24518970562306894           0.6092444468738147 0.8464984359842002 1.0000   
         H         H         1.0       0.20416157339575894           0.6086934646007236 0.8031961232786816 1.0000   
         H         H         1.0       0.3071249553982876  0.5888357036845192  0.9432330290739215 1.0000   
         H         H         1.0       0.34508222776659253           0.6389869331507038 0.946749081301527  1.0000   
         H         H         1.0       0.26299650100382566           0.7014730093176418 0.9106566611969316 1.0000   
         H         H         1.0       0.2282704957307048  0.6567668641085984  0.910195475047836  1.0000   
         H         H         1.0       0.19001957279988105           0.6213511967308589 0.9499114247868695 1.0000   
         H         H         1.0       0.17687441466332074           0.6289494236239533 0.009726563695852564         1.0000   
         H         H         1.0       0.25402527797220664           0.5564672231214561 0.03694886591312363          1.0000   
         H         H         1.0       0.26729011513523054           0.5484326490646406 0.976691819345106  1.0000   
         C         C         1.0       0.3502025282638842  0.2310817918015338  0.7779471199589775 1.0000   
         C         C         1.0       0.36680104588780654           0.22257273636555208          0.7472922627713765 1.0000   
         C         C         1.0       0.35840274225844937           0.24054907949803117          0.7180470704274656 1.0000   
         C         C         1.0       0.3299213155602128  0.26054760402292226           0.7162889926590156 1.0000   
         C         C         1.0       0.30915357026212986           0.26170170930900716          0.745472209121975  1.0000   
         C         C         1.0       0.32004995663791863           0.2483364188741976 0.7763561554217135 1.0000   
         H         H         1.0       0.3908777478824778  0.21024121645371963           0.7488769012837054 1.0000   
         H         H         1.0       0.3749643642127851  0.23679711926509903           0.6963581611521861 1.0000   
         H         H         1.0       0.28615335349120635           0.27541805741458714          0.7423115394903043 1.0000   
         H         H         1.0       0.30332398730660487           0.24943083468393715          0.7967876421203378 1.0000   
         C         C         1.0       0.328402379041651   0.3382907187819825  0.7189186402268938 1.0000   
         C         C         1.0       0.3140209988043134  0.32145785757927825           0.690710110476851  1.0000   
         C         C         1.0       0.29702521804030685           0.34215025758177253          0.6667839696398006 1.0000   
         C         C         1.0       0.2956078565059215  0.3765738218446873  0.6703292597182262 1.0000   
         C         C         1.0       0.3136162253462256  0.3935376588280858  0.6959082825149414 1.0000   
         C         C         1.0       0.32920144031701487           0.37323805455579356          0.7212233532548156 1.0000   
         C         C         1.0       0.3228256552535783  0.28185946277957924           0.6841654275176655 1.0000   
         C         C         1.0       0.2900453622232682  0.26275296613293514           0.6686721078451364 1.0000   
         C         C         1.0       0.2563673070962219  0.2708933843776108  0.6789542573815638 1.0000   
         C         C         1.0       0.23086243017978747           0.249032637825844  0.6729800955552743 1.0000   
         C         C         1.0       0.23687252742801226           0.21739892578093906          0.6602814322790779 1.0000   
         C         C         1.0       0.2683988208262572  0.20770764740799988           0.648509921541031  1.0000   
         C         C         1.0       0.29513760511201625           0.23057980295423178          0.6541067379124489 1.0000   
         C         C         1.0       0.3841830087389756  0.30377297357139943           0.6687430104565253 1.0000   
         C         C         1.0       0.4055809985748681  0.32004941173968515           0.6468176942763594 1.0000   
         C         C         1.0       0.39821287159331825           0.31719003705297305          0.6111357226877391 1.0000   
         C         C         1.0       0.3704369885620219  0.29861287379563245           0.5993387778802474 1.0000   
         C         C         1.0       0.3487537693066913  0.2864022604539911  0.622610673886254  1.0000   
         C         C         1.0       0.35539543321141126           0.2867048575487019 0.6579299508536213 1.0000   
         C         C         1.0       0.4150103792032622  0.34096231266035676           0.5831340809025976 1.0000   
         C         C         1.0       0.3384117097147454  0.42568658431712797           0.5899783828982408 1.0000   
         C         C         1.0       0.36379095402935685           0.42454248053623317          0.615068914048223  1.0000   
         C         C         1.0       0.38702326833152306           0.39888962553481805          0.6138926564073354 1.0000   
         C         C         1.0       0.3878503060303083  0.3736099794541206  0.5864533021265567 1.0000   
         C         C         1.0       0.36172239553921404           0.37601095152302993          0.5618259260579092 1.0000   
         C         C         1.0       0.3391653588020375  0.4029929020972035  0.5632126455095442 1.0000   
         C         C         1.0       0.4211476816542041  0.32845088643291376           0.5419734749876907 1.0000   
         C         C         1.0       0.4250014928849491  0.29424276471822186           0.5337545535063624 1.0000   
         C         C         1.0       0.4316103043013503  0.28347953167671863           0.5000775895482685 1.0000   
         C         C         1.0       0.4324595647001608  0.30734457106603297           0.47355154729058435          1.0000   
         C         C         1.0       0.4287811505489779  0.3412973519046181  0.4818600899240523 1.0000   
         C         C         1.0       0.4234540833371621  0.35073281337645845           0.5152506180225015 1.0000   
         C         C         1.0       0.4651162508351742  0.38226625863929564           0.5831668773787095 1.0000   
         C         C         1.0       0.4992741647625376  0.3904042166813072  0.5858765386259159 1.0000   
         C         C         1.0       0.5230604357985518  0.366256999585063   0.5934452890043146 1.0000   
         C         C         1.0       0.5116000222636489  0.3332105419454916  0.6020571240505355 1.0000   
         C         C         1.0       0.4773878968393999  0.32570014914402934           0.5981686232583417 1.0000   
         C         C         1.0       0.45352490393850936           0.3503585157207305 0.5914874255698858 1.0000   
         H         H         1.0       0.34094565678123684           0.3261163881624529 0.7410351584565329 1.0000   
         H         H         1.0       0.2830413220591844  0.33193753964525485           0.6442314104739438 1.0000   
         H         H         1.0       0.2864060211417386  0.3912639106155039  0.6485656363312031 1.0000   
         H         H         1.0       0.341566057321046   0.38552619243836284           0.7438263322658183 1.0000   
         H         H         1.0       0.2508846862753106  0.2951330902090375  0.6918059512336063 1.0000   
         H         H         1.0       0.20452918482729707           0.2534397740095274 0.6844848629136376 1.0000   
         H         H         1.0       0.27270034622861444           0.18367612846372658          0.6345695962342668 1.0000   
         H         H         1.0       0.3199812628198324  0.221439583841104   0.6487415482120787 1.0000   
         H         H         1.0       0.38915488293096195           0.3085438702498133 0.6959425187230428 1.0000   
         H         H         1.0       0.4267600542734394  0.33655729307075205           0.6554921867766258 1.0000   
         H         H         1.0       0.3605782137962806  0.299012146074004   0.5718685706059194 1.0000   
         H         H         1.0       0.3254759365859339  0.275940466461169   0.6122261651277364 1.0000   
         H         H         1.0       0.3627117030802876  0.4425317779031347  0.6378078176680945 1.0000   
         H         H         1.0       0.40260784195765975           0.3942033864004284 0.6362625256657545 1.0000   
         H         H         1.0       0.35741466777580483           0.355950756648045  0.5432226146682468 1.0000   
         H         H         1.0       0.3185246325655039  0.40334429514442605           0.5439914770693114 1.0000   
         H         H         1.0       0.4303905014307672  0.27630345200487894           0.554819982448035  1.0000   
         H         H         1.0       0.43306272517979794           0.25685093635510015          0.4951077002152965 1.0000   
         H         H         1.0       0.42914807733439486           0.36150881807608043          0.4631310782274974 1.0000   
         H         H         1.0       0.4217745316197863  0.3790982045327095  0.519657962970216  1.0000   
         H         H         1.0       0.4507773203320097  0.40136808373764715           0.5704226396636342 1.0000   
         H         H         1.0       0.5080776740882839  0.4146440587160135  0.5782326777413582 1.0000   
         H         H         1.0       0.5291983956150801  0.3165679922448483  0.610849825954406  1.0000   
         H         H         1.0       0.4708496757385729  0.2993967202272373  0.6030869182371476 1.0000   
         C         C         1.0       0.8229765335923749  0.26817241299878897           0.2607489961827005 1.0000   
         C         C         1.0       0.8346027397901373  0.26236008947557954           0.2939024235323314 1.0000   
         C         C         1.0       0.8225689842530762  0.23504908003735886           0.3131456227909229 1.0000   
         C         C         1.0       0.8009979614492803  0.21091370897253764           0.29729932619410404          1.0000   
         C         C         1.0       0.7908056113557297  0.21611426699060207           0.26417907309239524          1.0000   
         C         C         1.0       0.799942577918475   0.24469691940343705           0.24718959113535496          1.0000   
         H         H         1.0       0.8473731498289033  0.2822356101829884  0.3108374629558556 1.0000   
         H         H         1.0       0.8273624962085159  0.23162223253270586           0.34100436093611886          1.0000   
         H         H         1.0       0.7755848068282528  0.19769396466315675           0.24778889936311485          1.0000   
         H         H         1.0       0.7919468117470408  0.24683559520922066           0.2197304257389945 1.0000   
         C         C         1.0       0.7468139770095658  0.22006027558597926           0.3602403737831705 1.0000   
         C         C         1.0       0.7510690679489295  0.1975533161311573  0.3333410118424005 1.0000   
         C         C         1.0       0.7236289375685836  0.1901742662992918  0.3125244322711    1.0000   
         C         C         1.0       0.6917554473869065  0.20160463481412205           0.32234453007585484          1.0000   
         C         C         1.0       0.6881459142606827  0.22230098084414748           0.3498406884919865 1.0000   
         C         C         1.0       0.7154819197737582  0.23230447240904697           0.3689432746949321 1.0000   
         C         C         1.0       0.786616650493398   0.18185861927013997           0.3220191867669962 1.0000   
         C         C         1.0       0.813923041029829   0.16950228439042211           0.35074150593826636          1.0000   
         C         C         1.0       0.8062792259132001  0.17001367283534272           0.3858634652880433 1.0000   
         C         C         1.0       0.8319070815924122  0.16172808183673532           0.40921303538388   1.0000   
         C         C         1.0       0.8644509921639255  0.15592357026004233           0.39759399856490535          1.0000   
         C         C         1.0       0.873078477750007   0.15413449990812128           0.3624846368758224 1.0000   
         C         C         1.0       0.8462297910071609  0.15963045172378765           0.3391345445317872 1.0000   
         C         C         1.0       0.7898528574915246  0.13357264860963186           0.2734356747459674 1.0000   
         C         C         1.0       0.7759507697601128  0.1039304954933474  0.2595946746660253 1.0000   
         C         C         1.0       0.7574947690677698  0.07972288467788038           0.2780895247617296 1.0000   
         C         C         1.0       0.7512609964959026  0.08915448397257383           0.3124463763816366 1.0000   
         C         C         1.0       0.7621782664747085  0.11966760362371176           0.32581394569980027          1.0000   
         C         C         1.0       0.7793613153280501  0.1432480993231187  0.3063184761419689 1.0000   
         C         C         1.0       0.7399974342648762  0.04766990578038244           0.26168241503194895          1.0000   
         C         C         1.0       0.6317776196084317  0.07384440075372337           0.28068710370288763          1.0000   
         C         C         1.0       0.6498553282182126  0.0901069673261654  0.25559592483172255          1.0000   
         C         C         1.0       0.682622112920079   0.0806952137970701  0.2493030029285477 1.0000   
         C         C         1.0       0.6995647055314608  0.05665338951631038           0.2680179136865383 1.0000   
         C         C         1.0       0.6811562595383216  0.042428014977925484         0.29567641227976027          1.0000   
         C         C         1.0       0.6475821608079506  0.048343785816529206         0.3003719172875288 1.0000   
         C         C         1.0       0.7515590628278227  0.012374549321746864         0.2781840134475325 1.0000   
         C         C         1.0       0.7791930095438707  0.01028868111998249           0.30092848121118526          1.0000   
         C         C         1.0       0.7884733174371426  0.9798660019062508  0.3148868726963722 1.0000   
         C         C         1.0       0.7705286196955431  0.950721193782929   0.30615800624190864          1.0000   
         C         C         1.0       0.7437276704713802  0.9527684999936448  0.28297479223733796          1.0000   
         C         C         1.0       0.7332679976742039  0.982441643652438   0.2689771104269704 1.0000   
         C         C         1.0       0.7251373610909054  0.030974559573868632         0.1997135805757166 1.0000   
         C         C         1.0       0.7313073495214328  0.030035784990721126         0.1655071967923631 1.0000   
         C         C         1.0       0.7644516503806017  0.03421873639222395           0.1530861826714271 1.0000   
         C         C         1.0       0.7898575851692513  0.04047863402735574           0.17596617035627085          1.0000   
         C         C         1.0       0.7839046195537416  0.04237297741017909           0.21023239746035843          1.0000   
         C         C         1.0       0.750322009641606   0.03861547475006244           0.22216040511591964          1.0000   
         H         H         1.0       0.7692948040331354  0.22613415612417195           0.3743948275291808 1.0000   
         H         H         1.0       0.7301970242709985  0.1755875692432116  0.2874488685505807 1.0000   
         H         H         1.0       0.6702458076307505  0.19192077665631543           0.3067895625483937 1.0000   
         H         H         1.0       0.7117789058639651  0.2503633924844567  0.3905047939609958 1.0000   
         H         H         1.0       0.7822610091271033  0.1736862056350922  0.39833647838505565          1.0000   
         H         H         1.0       0.8275172115630645  0.16287131168224767           0.43691028353583433          1.0000   
         H         H         1.0       0.9005376600755105  0.15202987255116016           0.35241569902288505          1.0000   
         H         H         1.0       0.8528481093593437  0.15959442002479504           0.31195519225330987          1.0000   
         H         H         1.0       0.8075717055610462  0.14782132008343687           0.2572155769169216 1.0000   
         H         H         1.0       0.7830354167207719  0.09870595511261168           0.23289700684529657          1.0000   
         H         H         1.0       0.7372079604227251  0.07381739743157135           0.33044696730602535          1.0000   
         H         H         1.0       0.7534637156606069  0.1284213758510469  0.3490455952082443 1.0000   
         H         H         1.0       0.6400051055879693  0.11233775612037493           0.24074993720249316          1.0000   
         H         H         1.0       0.6985849082148261  0.0976323555540223  0.2327234862589142 1.0000   
         H         H         1.0       0.6937208992059433  0.022166548518002926         0.31001219215737164          1.0000   
         H         H         1.0       0.6349419215201549  0.0355253945157612  0.32156936049637325          1.0000   
         H         H         1.0       0.7937981288486441  0.03275652756854264           0.30972727552463625          1.0000   
         H         H         1.0       0.8099561372161107  0.9800955411603689  0.33239343949366035          1.0000   
         H         H         1.0       0.7303519239205094  0.9309044925452417  0.27819073738690586          1.0000   
         H         H         1.0       0.711252289853618   0.9846821651017705  0.25212475334287393          1.0000   
         H         H         1.0       0.6995177365507812  0.028628835787733786         0.20907559013796662          1.0000   
         H         H         1.0       0.7118882653739274  0.022856355060506983         0.14826304145094754          1.0000   
         H         H         1.0       0.8146405740999072  0.044753217066437534         0.16583840945956316          1.0000   
         H         H         1.0       0.8054536613647562  0.04770790153775951           0.22636337153695194          1.0000   
         C         C         1.0       0.871082461056637   0.40353700132346854           0.40652465715410574          1.0000   
         C         C         1.0       0.8369137215690238  0.3952950532084415  0.4146932448177362 1.0000   
         C         C         1.0       0.8304500363138843  0.3678107157037757  0.434523967107122  1.0000   
         C         C         1.0       0.8563941972075092  0.3441850692368575  0.4418553077538068 1.0000   
         C         C         1.0       0.8896157159612501  0.35213165806996666           0.42935394259434423          1.0000   
         C         C         1.0       0.8959622727144088  0.38201119033012265           0.4138122221634577 1.0000   
         H         H         1.0       0.8124582345282724  0.408501867645691   0.4055022332715235 1.0000   
         H         H         1.0       0.8033983610182155  0.3654720766076859  0.44086381018108495          1.0000   
         H         H         1.0       0.9117780998732361  0.33382749918817745           0.427595841921651  1.0000   
         H         H         1.0       0.9206658848678994  0.3905584745913531  0.4088503040217262 1.0000   
         C         C         1.0       0.8723111475472886  0.2686561258981748  0.41698668987791054          1.0000   
         C         C         1.0       0.8718713570686089  0.2780213863592657  0.4512702814944761 1.0000   
         C         C         1.0       0.8823875205263753  0.2543245045717885  0.47477699167402326          1.0000   
         C         C         1.0       0.898767939804594   0.22598620386863746           0.4646773436313906 1.0000   
         C         C         1.0       0.900769546872678   0.21782671087879438           0.43045531862856584          1.0000   
         C         C         1.0       0.888730413271483   0.24001318409809358           0.4060028587478656 1.0000   
         C         C         1.0       0.8524811560291816  0.31214407126885957           0.46509580960283864          1.0000   
         C         C         1.0       0.8154875205876368  0.29525333355612166           0.46482051631062626          1.0000   
         C         C         1.0       0.8042125755186629  0.27851022281655236           0.49481445515393746          1.0000   
         C         C         1.0       0.7702784591368846  0.2703958283335273  0.4995219348478641 1.0000   
         C         C         1.0       0.7465304867519602  0.2799519855045938  0.476999184278307  1.0000   
         C         C         1.0       0.7574966940177551  0.2937452690166724  0.44509448563153964          1.0000   
         C         C         1.0       0.7919042566803544  0.2982812988915147  0.43808720094431686          1.0000   
         C         C         1.0       0.8969231997484763  0.3268306238366097  0.5131042721071085 1.0000   
         C         C         1.0       0.9054829763012592  0.33363864027953455           0.5480014403559834 1.0000   
         C         C         1.0       0.8797497031615857  0.33997590902086416           0.571158341771045  1.0000   
         C         C         1.0       0.8480780871130903  0.34819505546766083           0.5588323646977997 1.0000   
         C         C         1.0       0.8410036271479381  0.34341834461957593           0.5250932667086999 1.0000   
         C         C         1.0       0.8634826925390797  0.3289498846866885  0.501695963412215  1.0000   
         C         C         1.0       0.881685865364968   0.3242718827411672  0.6105477267436086 1.0000   
         C         C         1.0       0.8483956823426084  0.22103865661000272           0.5777928062160309 1.0000   
         C         C         1.0       0.8812771357527145  0.23190018512419552           0.5733992664404525 1.0000   
         C         C         1.0       0.8923683206075477  0.2625991055596781  0.5859538991743314 1.0000   
         C         C         1.0       0.8695386768061043  0.2860869570793613  0.600214280511181  1.0000   
         C         C         1.0       0.8359222357689695  0.2776371131914497  0.6024414630359588 1.0000   
         C         C         1.0       0.8248463088238244  0.24428719696818335           0.5914878167228577 1.0000   
         C         C         1.0       0.8603726825849253  0.3458869671147417  0.637744203909721  1.0000   
         C         C         1.0       0.8595311331374859  0.3815336464689904  0.6332866534914677 1.0000   
         C         C         1.0       0.8394699064366891  0.4002747793194073  0.6559343847929388 1.0000   
         C         C         1.0       0.8239538215568984  0.3865476054972     0.6834334408193184 1.0000   
         C         C         1.0       0.8237096651079595  0.35135593936503956           0.6866386532088286 1.0000   
         C         C         1.0       0.8417040613876513  0.3319967777342319  0.6639787931113293 1.0000   
         C         C         1.0       0.924567339968878   0.3020668389877948  0.6543604095007762 1.0000   
         C         C         1.0       0.9562616432255266  0.3038293162179612  0.6700237594603441 1.0000   
         C         C         1.0       0.9792292671985929  0.3289992867430001  0.6620631540110378 1.0000   
         C         C         1.0       0.9703099566966633  0.3554932720721086  0.640764873865768  1.0000   
         C         C         1.0       0.9401215933865203  0.3525094888262295  0.6232413555434975 1.0000   
         C         C         1.0       0.9175952978081269  0.3257499280155247  0.6288618279000673 1.0000   
         H         H         1.0       0.8648295637258034  0.2860824822273248  0.39664174271311636          1.0000   
         H         H         1.0       0.8810389067242456  0.259456377254341   0.5021161978086125 1.0000   
         H         H         1.0       0.9114737240140269  0.20915593706958924           0.48371754621103236          1.0000   
         H         H         1.0       0.8894368201149193  0.2327576457793093  0.3782989942015322 1.0000   
         H         H         1.0       0.8228226446101419  0.27148746249499695           0.5150808639148671 1.0000   
         H         H         1.0       0.7620671790769279  0.2615651574484812  0.5243114095496498 1.0000   
         H         H         1.0       0.7406124040680259  0.30273835394405707           0.4268285735909224 1.0000   
         H         H         1.0       0.7985523843797306  0.3112040538454027  0.41347250745862946          1.0000   
         H         H         1.0       0.9159775487827754  0.314561252639778   0.4949712725339428 1.0000   
         H         H         1.0       0.9309704564459864  0.32716124912319383           0.5570394055308506 1.0000   
         H         H         1.0       0.8248711662316454  0.3494458972011627  0.577063183215659  1.0000   
         H         H         1.0       0.8157171107120936  0.34693422845568583           0.515045297344081  1.0000   
         H         H         1.0       0.9017738236597334  0.21591079633767302           0.5613998970123922 1.0000   
         H         H         1.0       0.9198322009804614  0.2698013750182441  0.583212168643935  1.0000   
         H         H         1.0       0.8154520395172952  0.2952638941130909  0.606628412992366  1.0000   
         H         H         1.0       0.7982102275665341  0.23808004000512872           0.5927780497862251 1.0000   
         H         H         1.0       0.8767492254826132  0.39473241297176453           0.6158605476347271 1.0000   
         H         H         1.0       0.8399339368102628  0.427629072300166   0.654994271016282  1.0000   
         H         H         1.0       0.8117220362247448  0.3383125532104665  0.7085623645103056 1.0000   
         H         H         1.0       0.8413498768773692  0.3044393024277895  0.6678982727451201 1.0000   
         H         H         1.0       0.9062902257556218  0.28186524056037093           0.660081954754494  1.0000   
         H         H         1.0       0.9638448169017526  0.28570143362303946           0.6881629538945203 1.0000   
         H         H         1.0       0.9868035820590682  0.3783081363566362  0.6372153823042341 1.0000   
         H         H         1.0       0.9298930916506756  0.3705449777114372  0.605684703121602  1.0000   
         C         C         1.0       0.7336708290861998  0.4734011003801426  0.35255882082394313          1.0000   
         C         C         1.0       0.7161583852917     0.450063042642122   0.33377280719905583          1.0000   
         C         C         1.0       0.694283755172142   0.4287563634506066  0.3493128557272145 1.0000   
         C         C         1.0       0.6912982114889087  0.42645170009840877           0.3855071555460358 1.0000   
         C         C         1.0       0.708295011117648   0.45223221725419394           0.40399542675569877          1.0000   
         C         C         1.0       0.7298832269082477  0.4749344255288975  0.38873708049683403          1.0000   
         H         H         1.0       0.7218198136862898  0.4472848914223388  0.3050108233737073 1.0000   
         H         H         1.0       0.679819953356386   0.4114657837558508  0.3326614121378473 1.0000   
         H         H         1.0       0.7028111227469811  0.45420228968553295           0.43143681516913956          1.0000   
         H         H         1.0       0.7414675778454837  0.49453421966928585           0.404422616665767  1.0000   
         C         C         1.0       0.7107447457772889  0.3777602029695034  0.4434940992564487 1.0000   
         C         C         1.0       0.677202716235129   0.3872413944828201  0.4387254247121918 1.0000   
         C         C         1.0       0.6535981180131855  0.3772830000017736  0.4632624135618732 1.0000   
         C         C         1.0       0.663825198233203   0.3581155137631594  0.49061933109844824          1.0000   
         C         C         1.0       0.6981565825237176  0.3507332264592201  0.4951416474197455 1.0000   
         C         C         1.0       0.7202808388215868  0.3622466158619076  0.4720712057485513 1.0000   
         C         C         1.0       0.6658792236475515  0.3990034156790395  0.40192438083044774          1.0000   
         C         C         1.0       0.662762005463876   0.3605851825568935  0.3875881998589808 1.0000   
         C         C         1.0       0.633871588685809   0.3405640957631608  0.3930653986170769 1.0000   
         C         C         1.0       0.6289388859726432  0.3098632811313544  0.3755128378158873 1.0000   
         C         C         1.0       0.6523684901033567  0.2978696893926999  0.3524743709650925 1.0000   
         C         C         1.0       0.684025662181951   0.314264644204498   0.35063176121731626          1.0000   
         C         C         1.0       0.6879035282057737  0.3471008186787067  0.36632924019371765          1.0000   
         C         C         1.0       0.625646986163529   0.44722186869607705           0.4237747590688684 1.0000   
         C         C         1.0       0.5940585394701672  0.4598834297670469  0.43066139858267644          1.0000   
         C         C         1.0       0.5663583510329351  0.44419260725910636           0.4146032785045556 1.0000   
         C         C         1.0       0.5719035550407658  0.4198443071903286  0.3898553963314517 1.0000   
         C         C         1.0       0.6040568521808464  0.4110387158059451  0.38016969386639105          1.0000   
         C         C         1.0       0.6308016737552177  0.41982913515414266           0.40103372368831713          1.0000   
         C         C         1.0       0.5305893958321983  0.45006106915790267           0.4309405039038075 1.0000   
         C         C         1.0       0.5570507640850153  0.38939615033383046           0.5208158278055456 1.0000   
         C         C         1.0       0.5585800751339112  0.4230981378072658  0.5234135831558084 1.0000   
         C         C         1.0       0.5470991411933734  0.4433339725945337  0.4964397156841808 1.0000   
         C         C         1.0       0.5356345322555663  0.42910256444118783           0.4660340056717686 1.0000   
         C         C         1.0       0.5351272510676025  0.39322301789830666           0.46378821521389285          1.0000   
         C         C         1.0       0.54347573888262    0.3740968066370879  0.49209507586122714          1.0000   
         C         C         1.0       0.4982053380706956  0.4389788670004894  0.40809760251702376          1.0000   
         C         C         1.0       0.49609002568639254           0.4449559402275078 0.3726191298962563 1.0000   
         C         C         1.0       0.46798354198547215           0.4367403027466245 0.35396005147753806          1.0000   
         C         C         1.0       0.4403647368237226  0.42071067530449174           0.3691678484430297 1.0000   
         C         C         1.0       0.4411019348792023  0.4159228104234379  0.4038117419230589 1.0000   
         C         C         1.0       0.4678985696403128  0.42655590678552696           0.424029640980272  1.0000   
         C         C         1.0       0.5016698701709966  0.502810122665765   0.4638822403036348 1.0000   
         C         C         1.0       0.4925234242994142  0.5366131882426636  0.4644916982302288 1.0000   
         C         C         1.0       0.504169312940862   0.5570149829607337  0.43837135077566697          1.0000   
         C         C         1.0       0.5246257878759166  0.5450422635910149  0.4132004802043422 1.0000   
         C         C         1.0       0.5342264806458419  0.5117412058621353  0.4131062419177528 1.0000   
         C         C         1.0       0.5222454634544538  0.4896611615480315  0.4372604858521707 1.0000   
         H         H         1.0       0.7290236542404198  0.3796211637830093  0.42235285545326434          1.0000   
         H         H         1.0       0.6281354688657695  0.3861006135855369  0.46430087726529096          1.0000   
         H         H         1.0       0.6424558791072483  0.34828172541373575           0.5065441029683835 1.0000   
         H         H         1.0       0.7478301590303574  0.3592981580615636  0.47496486465438864          1.0000   
         H         H         1.0       0.6177170439495235  0.3492293725702981  0.41136061988387534          1.0000   
         H         H         1.0       0.6073210971410158  0.2938115734035584  0.3799738448791371 1.0000   
         H         H         1.0       0.7042101236982685  0.3023649446088779  0.3374100561053454 1.0000   
         H         H         1.0       0.7104850820434185  0.3614827629057713  0.3638214910828893 1.0000   
         H         H         1.0       0.6432085844654145  0.45950733711260294           0.44032741677649606          1.0000   
         H         H         1.0       0.591856375234      0.48078325961357316           0.4500065345350916 1.0000   
         H         H         1.0       0.5508562235923181  0.4067904370752056  0.3801438126051524 1.0000   
         H         H         1.0       0.6066886152124562  0.39123493789251773           0.3608442176020546 1.0000   
         H         H         1.0       0.569980374521589   0.43675167544640425           0.5458158167144215 1.0000   
         H         H         1.0       0.552925880186902   0.4706660537799187  0.4992254770835449 1.0000   
         H         H         1.0       0.527332595788823   0.38208950431975147           0.4403204294511951 1.0000   
         H         H         1.0       0.544802673724084   0.34750185374723386           0.4884608940103239 1.0000   
         H         H         1.0       0.5178448801606967  0.456709317521088   0.36267280338170216          1.0000   
         H         H         1.0       0.46897924218835857           0.44574060997865156          0.32975064466505616          1.0000   
         H         H         1.0       0.42108824583426413           0.40032846854478754          0.4148789359075124 1.0000   
         H         H         1.0       0.4663102056622411  0.4225109328944987  0.45176323479222386          1.0000   
         H         H         1.0       0.4920440911227577  0.4883645020615685  0.48565563376495086          1.0000   
         H         H         1.0       0.4814613523942053  0.5504467528666354  0.48644319978067146          1.0000   
         H         H         1.0       0.5334048287836078  0.5632403664880119  0.3937914531521248 1.0000   
         H         H         1.0       0.5497668913755949  0.5036300502933839  0.39274768315216274          1.0000   
         C         C         1.0       0.0969606800357602  0.8839859037254231  0.2022288271858883 1.0000   
         C         C         1.0       0.1258133610818417  0.8858255683078715  0.18093152814163477          1.0000   
         C         C         1.0       0.14412877893487444           0.8561863991661446 0.17492277909598805          1.0000   
         C         C         1.0       0.13708812169036236           0.8273084781842798 0.19364270504568976          1.0000   
         C         C         1.0       0.11154338947972149           0.8277538991095201 0.2165730057321463 1.0000   
         C         C         1.0       0.08880671768863281           0.8549448197037628 0.21868080803894893          1.0000   
         H         H         1.0       0.1312475476807895  0.9104683728747234  0.16983718259425748          1.0000   
         H         H         1.0       0.1649442252015314  0.8585201717610166  0.15581638978127557          1.0000   
         H         H         1.0       0.10567843667865112           0.8060559349404451 0.23190906264650823          1.0000   
         H         H         1.0       0.06889890160623703           0.8540338562839287 0.2380245680915663 1.0000   
         C         C         1.0       0.1517706184547105  0.762058549402463   0.24548852629791354          1.0000   
         C         C         1.0       0.15531764059275488           0.7600795447042844 0.2101306492529642 1.0000   
         C         C         1.0       0.16311103657744916           0.729654969598979  0.19566546379605307          1.0000   
         C         C         1.0       0.16076806549559827           0.7002479449164835 0.21484214710630697          1.0000   
         C         C         1.0       0.15977826882763346           0.702211242060338  0.25035035913006876          1.0000   
         C         C         1.0       0.15258618179809588           0.7334685558212146 0.2662147461555316 1.0000   
         C         C         1.0       0.16089451747557457           0.7937198950028531 0.1855688952587944 1.0000   
         C         C         1.0       0.20111960543265425           0.8032710353018425 0.19667459528724104          1.0000   
         C         C         1.0       0.2282218179603087  0.7876444024452094  0.18062479413246965          1.0000   
         C         C         1.0       0.26091360720829343           0.7933738305802513 0.1906251922678746 1.0000   
         C         C         1.0       0.2683911529692787  0.8174626635292588  0.21625516998451674          1.0000   
         C         C         1.0       0.24165190676982673           0.8316836950914057 0.23463602349016283          1.0000   
         C         C         1.0       0.20826251355243622           0.8240626049682674 0.224777821847227  1.0000   
         C         C         1.0       0.12081707958965493           0.7702958386891174 0.13724753406576004          1.0000   
         C         C         1.0       0.1173015692053989  0.758474153273721   0.10428906616631915          1.0000   
         C         C         1.0       0.13929972133780757           0.7678874917201174 0.07868135726475303          1.0000   
         C         C         1.0       0.16714613121522748           0.7871296046323856 0.08596559152593643          1.0000   
         C         C         1.0       0.1722879641602782  0.796740076467635   0.12063110324136049          1.0000   
         C         C         1.0       0.15144193072045936           0.7868901583021986 0.1463114237742685 1.0000   
         C         C         1.0       0.13865305832500768           0.7482654365199861 0.041768560724863235         1.0000   
         C         C         1.0       0.19785173647776996           0.6595695427152282 0.0744861532957306 1.0000   
         C         C         1.0       0.162917193883622   0.659745736991055   0.07914466531562458          1.0000   
         C         C         1.0       0.14530581159509967           0.687860406255502  0.06943840818339808          1.0000   
         C         C         1.0       0.16057228020763065           0.7160046645350845 0.05165558708455453          1.0000   
         C         C         1.0       0.19600456403400215           0.7150354305833545 0.049365238034954524         1.0000   
         C         C         1.0       0.21399467328042476           0.6871205793630214 0.06054265830609685          1.0000   
         C         C         1.0       0.1526809424802169  0.7726102846795466  0.012677364349719555         1.0000   
         C         C         1.0       0.14294858828868942           0.8081758146762782 0.013352721740665041         1.0000   
         C         C         1.0       0.15254752383701153           0.8314275885071142 0.9894448316161157 1.0000   
         C         C         1.0       0.17417167905760392           0.8203070312392119 0.9639110007052583 1.0000   
         C         C         1.0       0.18197244823682712           0.784829538059265  0.9597929954132174 1.0000   
         C         C         1.0       0.17132414701083803           0.7621520525212641 0.9838805802196898 1.0000   
         C         C         1.0       0.09982072048998923           0.7108134376204136 0.003114278249854774         1.0000   
         C         C         1.0       0.06887371106065984           0.6973883106997478 0.9976493840008365 1.0000   
         C         C         1.0       0.03993741892448077           0.709034286997405  0.014532302565443356         1.0000   
         C         C         1.0       0.042006045116232515          0.7376759187040096 0.034464382785490466         1.0000   
         C         C         1.0       0.07360318624564913           0.7535283615711124 0.03918214577632462          1.0000   
         C         C         1.0       0.1025284954672898  0.7381494678128137  0.026769650587367577         1.0000   
         H         H         1.0       0.14976961146405646           0.7881599918503546 0.25468146849493106          1.0000   
         H         H         1.0       0.17108913352834546           0.7275773765128176 0.1694801030387956 1.0000   
         H         H         1.0       0.16229971459799103           0.676224406337734  0.20017976153937853          1.0000   
         H         H         1.0       0.15389858289896333           0.7383238724653985 0.29355363076484786          1.0000   
         H         H         1.0       0.22109661968935942           0.7723159194326376 0.15839199217184607          1.0000   
         H         H         1.0       0.28212224795756147           0.785711730591418  0.17404166396440793          1.0000   
         H         H         1.0       0.24817747802955117           0.8501103206658085 0.25463095802889274          1.0000   
         H         H         1.0       0.1864395812886789  0.8305958672173487  0.2416515174428034 1.0000   
         H         H         1.0       0.1059461828449857  0.7613415826247528  0.15705886422513926          1.0000   
         H         H         1.0       0.09839451604522294           0.7399630507085113 0.10321241656432831          1.0000   
         H         H         1.0       0.18858200855705845           0.7951765924972304 0.0687676394931771 1.0000   
         H         H         1.0       0.19328896188698763           0.8152749254375165 0.12451167401527986          1.0000   
         H         H         1.0       0.14838832834705765           0.6410944335242073 0.0925963673766911 1.0000   
         H         H         1.0       0.11838017940820329           0.6873327754815438 0.07741173659239484          1.0000   
         H         H         1.0       0.21237775584684535           0.7334271324793745 0.03730399837036136          1.0000   
         H         H         1.0       0.24114352964779273           0.6878680984922821 0.05822953681356524          1.0000   
         H         H         1.0       0.12819501877661504           0.8189075028098306 0.035550754743656876         1.0000   
         H         H         1.0       0.1500652458537971  0.8573995903196285  0.99083560709619   1.0000   
         H         H         1.0       0.19750873097480284           0.7776025096549793 0.9381971359637454 1.0000   
         H         H         1.0       0.1714761689424723  0.7344903845874522  0.980664565772912  1.0000   
         H         H         1.0       0.12222931203722158           0.6978092877267199 0.9940676366990702 1.0000   
         H         H         1.0       0.06467488390070798           0.6755317370612535 0.9814619541509696 1.0000   
         H         H         1.0       0.020315812624968732          0.750798682353884  0.048499903176356884         1.0000   
         H         H         1.0       0.07526994440764927           0.7765211094966145 0.05543129124694724          1.0000   
         C         C         1.0       0.42907427457552116           0.944011546042422  0.4057327076702969 1.0000   
         C         C         1.0       0.4468294586603002  0.9136783860523019  0.4124580895059727 1.0000   
         C         C         1.0       0.4493751827425611  0.8878799581511244  0.3884286842336814 1.0000   
         C         C         1.0       0.43140747742431834           0.8897134111998362 0.35776188936758274          1.0000   
         C         C         1.0       0.4112359846303957  0.9182647417401841  0.3520057530773345 1.0000   
         C         C         1.0       0.4080965530354697  0.9456875648586949  0.3765452866517409 1.0000   
         H         H         1.0       0.4612769409533974  0.9100437978476329  0.43479415303315083          1.0000   
         H         H         1.0       0.4665176868923972  0.8665392975660323  0.3952479998062788 1.0000   
         H         H         1.0       0.3942543918623277  0.9214105067796964  0.32930127713573665          1.0000   
         H         H         1.0       0.39123869792488664           0.9665429980796286 0.37063742538512856          1.0000   
         C         C         1.0       0.3714781353006343  0.8509901733408788  0.3153922233305615 1.0000   
         C         C         1.0       0.406170130053888   0.8538003636951502  0.3040436226595982 1.0000   
         C         C         1.0       0.4132925900193659  0.8441115516728045  0.2707962472639    1.0000   
         C         C         1.0       0.38820795826192794           0.8308378306596745 0.2501113777338589 1.0000   
         C         C         1.0       0.3562039703700072  0.8234727123397074  0.26270896598531424          1.0000   
         C         C         1.0       0.34681273482273933           0.8323873923911373 0.29522033176785384          1.0000   
         C         C         1.0       0.43651344828912564           0.8602480437890203 0.330208630997253  1.0000   
         C         C         1.0       0.4414416681039481  0.8219452251630412  0.34551887865996617          1.0000   
         C         C         1.0       0.4602189771620316  0.7985291340889145  0.32773978112895996          1.0000   
         C         C         1.0       0.4618504298653633  0.7652023958977521  0.3374099545200886 1.0000   
         C         C         1.0       0.4455005362128485  0.7541970737388178  0.367144701773992  1.0000   
         C         C         1.0       0.42822762090137784           0.7786465155109116 0.38630236299273074          1.0000   
         C         C         1.0       0.4247512893614339  0.8109427217279461  0.3752531523692345 1.0000   
         C         C         1.0       0.46742151901616835           0.9008106371682718 0.2877929068039178 1.0000   
         C         C         1.0       0.49603015383735066           0.915798126800653  0.2737357355645166 1.0000   
         C         C         1.0       0.5279691102014217  0.9069847745808302  0.285931077338289  1.0000   
         C         C         1.0       0.5297083367880667  0.8851186848637259  0.3121914101124231 1.0000   
         C         C         1.0       0.5010265655536158  0.8684148819681693  0.32510987491188953          1.0000   
         C         C         1.0       0.46993491122871384           0.8746219600134573 0.3119129969124185 1.0000   
         C         C         1.0       0.5605438843158669  0.92476574690008    0.2675956725966753 1.0000   
         C         C         1.0       0.5635688933161357  0.8616897110593377  0.17373305470460507          1.0000   
         C         C         1.0       0.5434208676395818  0.891149879566263   0.17494853812028432          1.0000   
         C         C         1.0       0.5457461630409604  0.9118129201222815  0.2037593146819185 1.0000   
         C         C         1.0       0.5625894905700735  0.9018385927965479  0.23319794847921377          1.0000   
         C         C         1.0       0.5759326813764412  0.8695088292328935  0.23221930798105145          1.0000   
         C         C         1.0       0.5790344702227561  0.8511021751986004  0.2030751856560613 1.0000   
         C         C         1.0       0.5936126298379726  0.9245319854848437  0.2917906147407191 1.0000   
         C         C         1.0       0.592571654518214   0.9362177567414873  0.3263570968142018 1.0000   
         C         C         1.0       0.6218200186550954  0.9388706208675427  0.34700482189924425          1.0000   
         C         C         1.0       0.6522757321163111  0.9276676189346353  0.333210185517405  1.0000   
         C         C         1.0       0.6547384402763825  0.9168979569690734  0.29981115703804917          1.0000   
         C         C         1.0       0.6267570563270958  0.9163003697282854  0.27884001942813347          1.0000   
         C         C         1.0       0.5805566650323677  0.9799960843897544  0.23658680103190624          1.0000   
         C         C         1.0       0.5819753620266888  0.013432001372791325         0.23315399587379448          1.0000   
         C         C         1.0       0.5625353077932527  0.035484930582057705         0.25348355124443517          1.0000   
         C         C         1.0       0.539651464105275   0.020805998888139055         0.2767516570814302 1.0000   
         C         C         1.0       0.5376292058685925  0.9851175051496018  0.279169356032639  1.0000   
         C         C         1.0       0.5602348744059295  0.9646250444171417  0.2607597738733906 1.0000   
         H         H         1.0       0.36184858927581215           0.8571527484043532 0.3406243927523781 1.0000   
         H         H         1.0       0.43858431888506527           0.8442929803874482 0.25922856239695224          1.0000   
         H         H         1.0       0.39436086236144746           0.8215156461793525 0.22349877991838435          1.0000   
         H         H         1.0       0.3215377646806052  0.8275653628327528  0.3069200999916025 1.0000   
         H         H         1.0       0.4766766190821695  0.8054286635780807  0.30667406471790243          1.0000   
         H         H         1.0       0.4787159089882063  0.7506265549755432  0.321477523879883  1.0000   
         H         H         1.0       0.4135061366866539  0.7710902163878791  0.4089970363109997 1.0000   
         H         H         1.0       0.409720306985481   0.8277961555373212  0.39182310107083146          1.0000   
         H         H         1.0       0.4423920350163052  0.9118667799431749  0.2796167433912794 1.0000   
         H         H         1.0       0.49318642923314193           0.9339281192555732 0.2527744900220275 1.0000   
         H         H         1.0       0.5544789422815759  0.8799792888459956  0.32595050166069967          1.0000   
         H         H         1.0       0.5042924204464984  0.8559905574848624  0.349895653363488  1.0000   
         H         H         1.0       0.5274719238786715  0.8991849896454711  0.15472495765518826          1.0000   
         H         H         1.0       0.5309858544550192  0.9352338435062005  0.20540373470470583          1.0000   
         H         H         1.0       0.584319777606198   0.8574997265445935  0.25820964865916074          1.0000   
         H         H         1.0       0.5886195113457121  0.826441016621157   0.20465174059686395          1.0000   
         H         H         1.0       0.5686013795003911  0.9451005540241556  0.3365575415660725 1.0000   
         H         H         1.0       0.6204842375415804  0.9462891791344524  0.3743749202318849 1.0000   
         H         H         1.0       0.6775665366128447  0.9073670615149826  0.2891133150084428 1.0000   
         H         H         1.0       0.629155670462804   0.9053418090630879  0.2538501313414061 1.0000   
         H         H         1.0       0.5986107706511781  0.9655723900464941  0.2214363293546519 1.0000   
         H         H         1.0       0.5985023417095442  0.02219176704896597           0.21495331620277755          1.0000   
         H         H         1.0       0.5249683958327219  0.038827027346453935         0.2905128231360825 1.0000   
         H         H         1.0       0.5191454550429649  0.9772587760709193  0.30054393779128197          1.0000   
         C         C         1.0       0.2458655484963548  0.7368896586584216  0.4399275883347244 1.0000   
         C         C         1.0       0.23326414886541444           0.7042489623720769 0.44289616448532443          1.0000   
         C         C         1.0       0.24552005104202293           0.6782256383247914 0.42217373832623195          1.0000   
         C         C         1.0       0.2722167194259146  0.684511423469275   0.39934238411187656          1.0000   
         C         C         1.0       0.28133740636796895           0.7182094227484956 0.39549691092120365          1.0000   
         C         C         1.0       0.26943120246657837           0.7440250173807086 0.4153786892167273 1.0000   
         H         H         1.0       0.2096465978223452  0.7002484937687458  0.45982420988591943          1.0000   
         H         H         1.0       0.2321305630753481  0.6541155746130232  0.4204072965968957 1.0000   
         H         H         1.0       0.30090431528173084           0.7257537965261623 0.37760034567012907          1.0000   
         H         H         1.0       0.2798280810905543  0.7693926895041293  0.40873771888798066          1.0000   
         C         C         1.0       0.34613573418933524           0.6735040339535018 0.39740045466242807          1.0000   
         C         C         1.0       0.32600823338337714           0.6612408484731611 0.369438244614017  1.0000   
         C         C         1.0       0.3404360007658427  0.6599879754432575  0.33637963337871624          1.0000   
         C         C         1.0       0.37535181532094053           0.6677839945795966 0.3328839791828633 1.0000   
         C         C         1.0       0.39418625502967153           0.6805934794021795 0.35993106542452996          1.0000   
         C         C         1.0       0.3787792406419517  0.6827134688712538  0.3915283196020584 1.0000   
         C         C         1.0       0.28704916994814245           0.6535142408097145 0.3771350193569387 1.0000   
         C         C         1.0       0.2637909962519476  0.6500408837480595  0.34481641761519677          1.0000   
         C         C         1.0       0.26066939163717867           0.675876514343688  0.3215660195170857 1.0000   
         C         C         1.0       0.24030077713901193           0.6719118026832485 0.2927425720572605 1.0000   
         C         C         1.0       0.21700326706232811           0.6449687028770892 0.2904814995884507 1.0000   
         C         C         1.0       0.2147274512918372  0.6223164179373301  0.31706783546415773          1.0000   
         C         C         1.0       0.23979379573706391           0.624516539090087  0.34259598166198074          1.0000   
         C         C         1.0       0.29372985225820214           0.6147709349163182 0.43320581531999636          1.0000   
         C         C         1.0       0.30588752953150544           0.5857137557997694 0.44877382916505787          1.0000   
         C         C         1.0       0.31943307087491263           0.5589413440698409 0.42910638014689273          1.0000   
         C         C         1.0       0.3177510951165362  0.5614717223254149  0.3923398769956993 1.0000   
         C         C         1.0       0.3042403845047705  0.5895664317668703  0.3765737542691297 1.0000   
         C         C         1.0       0.29209481272414295           0.6180904120748903 0.3964342888998682 1.0000   
         C         C         1.0       0.3424362483631367  0.5288017658369837  0.44706502291655104          1.0000   
         C         C         1.0       0.4341522842725485  0.5865713320265199  0.42471244048219886          1.0000   
         C         C         1.0       0.41570714226029765           0.5941026347572944 0.4545866859707586 1.0000   
         C         C         1.0       0.3884880201842538  0.5730577534723458  0.46317369629321653          1.0000   
         C         C         1.0       0.37916208155441944           0.545964714803412  0.4420702355351659 1.0000   
         C         C         1.0       0.39941437353416537           0.5391503834268127 0.41331325787466505          1.0000   
         C         C         1.0       0.42536811093461036           0.5588148845278244 0.40444814553397745          1.0000   
         C         C         1.0       0.3358847378885297  0.49085709137256056           0.4296125073727895 1.0000   
         C         C         1.0       0.30491676833196024           0.4805868866695434 0.41433584828257175          1.0000   
         C         C         1.0       0.2981506639990479  0.4471835583781759  0.4040015945134447 1.0000   
         C         C         1.0       0.3218153373514371  0.42254501174394077           0.4118181451810886 1.0000   
         C         C         1.0       0.35196751741788285           0.4316187450114378 0.42703193678170365          1.0000   
         C         C         1.0       0.358463870651036   0.46459114793611445           0.435336293141766  1.0000   
         C         C         1.0       0.36343692940389205           0.5071183159997891 0.5097837665628889 1.0000   
         C         C         1.0       0.35557377782102956           0.49988513211410396          0.5427908709919552 1.0000   
         C         C         1.0       0.3226590509413665  0.5010255073908323  0.5542227761402917 1.0000   
         C         C         1.0       0.2962974400313347  0.5112842308573421  0.5333466025224317 1.0000   
         C         C         1.0       0.30337671442350017           0.5190573865777354 0.49961861269831165          1.0000   
         C         C         1.0       0.33686159513795144           0.5194288723985796 0.48758872711939055          1.0000   
         H         H         1.0       0.3367006233708259  0.6760133884041418  0.42359245733942313          1.0000   
         H         H         1.0       0.32569217947839463           0.6543246288078307 0.3139455835954757 1.0000   
         H         H         1.0       0.39013741169164273           0.6643961049462045 0.3089433207179973 1.0000   
         H         H         1.0       0.3913639970604872  0.6881625451512062  0.4146060399181099 1.0000   
         H         H         1.0       0.2731040650991478  0.6998787351112218  0.32561126646993793          1.0000   
         H         H         1.0       0.23837645059563847           0.691802232394675  0.27369664447877534          1.0000   
         H         H         1.0       0.19860027015613763           0.599355272450273  0.31439424090508566          1.0000   
         H         H         1.0       0.2415374456224946  0.6052145328605673  0.3617574777360878 1.0000   
         H         H         1.0       0.287423225966096   0.6365594306239549  0.4497623054788104 1.0000   
         H         H         1.0       0.31239189973384623           0.5857511200637492 0.476976689646244  1.0000   
         H         H         1.0       0.33177502109820406           0.543866590565893  0.37673329297287   1.0000   
         H         H         1.0       0.3101020392760376  0.5913167704730857  0.34891419494034565          1.0000   
         H         H         1.0       0.4230283919083311  0.6141963873046242  0.471954038143989  1.0000   
         H         H         1.0       0.3733677588414197  0.5789383049971334  0.484735135708056  1.0000   
         H         H         1.0       0.3952932580287899  0.5163253507317808  0.39867969314073104          1.0000   
         H         H         1.0       0.4417257708862316  0.5531001822454392  0.3841529982141457 1.0000   
         H         H         1.0       0.2842700440121001  0.4977212058594449  0.41038876889495884          1.0000   
         H         H         1.0       0.2739290524808526  0.44091664924501395           0.3922557852479556 1.0000   
         H         H         1.0       0.3691492839633698  0.41186398544028846           0.43306436931511016          1.0000   
         H         H         1.0       0.38102986501657826           0.46882288777759595          0.44916513403605135          1.0000   
         H         H         1.0       0.38716382411358097           0.5014021823866034 0.4985161233949618 1.0000   
         H         H         1.0       0.3764199462606867  0.4887447294502982  0.5574305833402659 1.0000   
         H         H         1.0       0.2712135214353537  0.5084920072471567  0.5445289908183867 1.0000   
         H         H         1.0       0.28165929467005324           0.5258492339440854 0.4845935544026935 1.0000   
         C         C         1.0       0.7135988269163323  0.8062267483267623  0.8981479184875589 1.0000   
         C         C         1.0       0.725184218734897   0.7873797377305087  0.9260330955772711 1.0000   
         C         C         1.0       0.7494945021994714  0.8018260987203382  0.9489176467582544 1.0000   
         C         C         1.0       0.7643316186665382  0.8332902289396645  0.9425900147649108 1.0000   
         C         C         1.0       0.7551291254737386  0.8481343248795805  0.9116640737484452 1.0000   
         C         C         1.0       0.7287157046382656  0.8372869826078915  0.891993690162016  1.0000   
         H         H         1.0       0.7147676631440166  0.7624750846308501  0.9287132033845148 1.0000   
         H         H         1.0       0.7591682153182786  0.7864885044996428  0.9699803984462427 1.0000   
         H         H         1.0       0.7690160810916438  0.8703625116157634  0.9040175291551907 1.0000   
         H         H         1.0       0.7223170593790418  0.8477152040005478  0.8667683524040485 1.0000   
         C         C         1.0       0.8238434532129547  0.8928899097193841  0.9310242667339269 1.0000   
         C         C         1.0       0.801498464668384   0.8882010331099444  0.9586182887157699 1.0000   
         C         C         1.0       0.7948100851404404  0.9162400947929807  0.9787305438449891 1.0000   
         C         C         1.0       0.8099984839333514  0.948743783002537   0.9745090048023823 1.0000   
         C         C         1.0       0.8309469688730242  0.9520554970194859  0.9472738390818088 1.0000   
         C         C         1.0       0.8386456125441927  0.9248469993080843  0.9276444099363321 1.0000   
         C         C         1.0       0.7912629657935696  0.8509656638613928  0.9685020599657571 1.0000   
         C         C         1.0       0.8254476468276033  0.8309049948402569  0.971040876913847  1.0000   
         C         C         1.0       0.8493417464501821  0.8457246244250054  0.9923652375807471 1.0000   
         C         C         1.0       0.8803779052292424  0.8306868579676739  0.9979510172763992 1.0000   
         C         C         1.0       0.8885547793394136  0.8005773183127456  0.9836008085213933 1.0000   
         C         C         1.0       0.8658468108022485  0.7853310632668238  0.961343144553608  1.0000   
         C         C         1.0       0.8345855415225187  0.8011145900003348  0.9539866364562184 1.0000   
         C         C         1.0       0.738606096189995   0.863124206537533   0.008478643974631828         1.0000   
         C         C         1.0       0.7216680840157735  0.8639657136320181  0.039094309686665836         1.0000   
         C         C         1.0       0.7372338578978704  0.8541052638875555  0.0702612679187622 1.0000   
         C         C         1.0       0.7674908962731253  0.8376257398897126  0.06640414718731869          1.0000   
         C         C         1.0       0.7840376387810133  0.8341421281845943  0.03610937753008736          1.0000   
         C         C         1.0       0.7717834010811979  0.8502383807512365  0.006262141479381977         1.0000   
         C         C         1.0       0.7189318668687199  0.8662167823994495  0.10462845032896619          1.0000   
         C         C         1.0       0.7706698044186672  0.9669359697732542  0.10754177676697865          1.0000   
         C         C         1.0       0.7383700978093456  0.9619662454969597  0.09126678221218408          1.0000   
         C         C         1.0       0.7231770855923682  0.9308108565448707  0.09004408343085755          1.0000   
         C         C         1.0       0.7357002786000129  0.9031952252597466  0.10548948853820111          1.0000   
         C         C         1.0       0.7673300319325191  0.9069732771941968  0.12151495864985583          1.0000   
         C         C         1.0       0.7851232482376622  0.9389092134769702  0.1240576042211206 1.0000   
         C         C         1.0       0.726005345699894   0.8449594862806002  0.139215246235747  1.0000   
         C         C         1.0       0.735172747285037   0.8103295813540344  0.13815819035439214          1.0000   
         C         C         1.0       0.7451243848264835  0.7935759364202876  0.16846926630684522          1.0000   
         C         C         1.0       0.746499837215083   0.8115130577366897  0.1997803325886221 1.0000   
         C         C         1.0       0.7338830761959094  0.8443003684779568  0.20073042698888768          1.0000   
         C         C         1.0       0.7248725825876672  0.8611359520619655  0.17113658940700768          1.0000   
         C         C         1.0       0.6590305597837312  0.8914785926686538  0.12012198622987691          1.0000   
         C         C         1.0       0.6249440466435832  0.8897677486080706  0.1197249528187039 1.0000   
         C         C         1.0       0.6097006048551478  0.8604175380150184  0.10715021003532346          1.0000   
         C         C         1.0       0.6281874594788083  0.8323547054821928  0.09599788378032298          1.0000   
         C         C         1.0       0.6624131209566015  0.8351117787009936  0.09602950349315502          1.0000   
         C         C         1.0       0.6789889273489305  0.864720766207219   0.10639658865734575          1.0000   
         H         H         1.0       0.8284868085831186  0.8750966678716258  0.910222729251773  1.0000   
         H         H         1.0       0.7798118634361567  0.9143422560819877  0.0012824434485476655        1.0000   
         H         H         1.0       0.8073033201114631  0.9685523886175751  0.9938984997165603 1.0000   
         H         H         1.0       0.8532246644635116  0.9301690269481984  0.903743454221758  1.0000   
         H         H         1.0       0.8434514254242284  0.8700420183755505  0.006878398634907246         1.0000   
         H         H         1.0       0.89870283835602    0.8414489694275414  0.01701184122820676          1.0000   
         H         H         1.0       0.8741337332847455  0.7613321396978935  0.9480663227496198 1.0000   
         H         H         1.0       0.8175633085135537  0.789339842883546   0.9356843771058917 1.0000   
         H         H         1.0       0.7284006834778587  0.8760081164148092  0.9851985561348424 1.0000   
         H         H         1.0       0.6963964370941004  0.8753696497270567  0.04017170671395265          1.0000   
         H         H         1.0       0.7851703500373165  0.8312672909160547  0.08757721758964855          1.0000   
         H         H         1.0       0.8076610445671238  0.8204438368325364  0.03522683955752038          1.0000   
         H         H         1.0       0.7283371333628487  0.9839066908112095  0.07705251616846436          1.0000   
         H         H         1.0       0.6978236843703175  0.9286655437994613  0.07740491908747824          1.0000   
         H         H         1.0       0.7781300863632414  0.8848768552599423  0.13275744294813224          1.0000   
         H         H         1.0       0.8095569459937648  0.9409650606064434  0.13687814520837263          1.0000   
         H         H         1.0       0.7379368354336764  0.7987101292698978  0.11243522437799346          1.0000   
         H         H         1.0       0.7559897472446263  0.7683442433456857  0.16758690192268286          1.0000   
         H         H         1.0       0.7350992810533296  0.8581937865035684  0.22414281818010104          1.0000   
         H         H         1.0       0.7181212507780358  0.8864568172080931  0.17167907145952943          1.0000   
         H         H         1.0       0.672707695856877   0.9142476181932205  0.1326803326816278 1.0000   
         H         H         1.0       0.6103526628245394  0.9122559287572157  0.13054209766832156          1.0000   
         H         H         1.0       0.6159214991793862  0.8102446149792141  0.089746069395985  1.0000   
         H         H         1.0       0.6802591354163562  0.8132046366471593  0.0908107593395947 1.0000   
         C         C         1.0       0.6915114744414537  0.9502219069505473  0.7548207161954913 1.0000   
         C         C         1.0       0.6964763623330663  0.9668291390642871  0.7853278709182518 1.0000   
         C         C         1.0       0.7282569752703646  0.9812404435757944  0.7921028896406825 1.0000   
         C         C         1.0       0.7531486991491505  0.9808653108685932  0.7671456623378964 1.0000   
         C         C         1.0       0.7474472682115281  0.9639155888963541  0.7362323749776425 1.0000   
         C         C         1.0       0.7158763424250517  0.9498873426931804  0.7290603079612024 1.0000   
         H         H         1.0       0.6776783709889638  0.9631535734440405  0.8068019348160961 1.0000   
         H         H         1.0       0.729758414500311   0.9913202774101553  0.8190645305820881 1.0000   
         H         H         1.0       0.7665286351169677  0.9644134357710862  0.715901483616102  1.0000   
         H         H         1.0       0.7116185535930114  0.9399950250421528  0.7033170926671928 1.0000   
         C         C         1.0       0.8284493143110166  0.9503647814553579  0.7479432736043274 1.0000   
         C         C         1.0       0.8242676540914283  0.9844818001080833  0.757492576104602  1.0000   
         C         C         1.0       0.8539274217922402  0.004404484298513589         0.7568182269121608 1.0000   
         C         C         1.0       0.8830380575598417  0.9904530073772324  0.7456189926414769 1.0000   
         C         C         1.0       0.8850351754558586  0.9571104269042664  0.7326483121666237 1.0000   
         C         C         1.0       0.8568393960696132  0.9363320970032565  0.7364728007647902 1.0000   
         C         C         1.0       0.7889987501780622  0.0006324885380488698        0.7725897296325861 1.0000   
         C         C         1.0       0.7991289423903363  0.004168647106337131         0.8129221222456388 1.0000   
         C         C         1.0       0.8135164203720865  0.03264255082023615           0.8255838072236535 1.0000   
         C         C         1.0       0.8248237783110519  0.03278449555489282           0.8592490693872273 1.0000   
         C         C         1.0       0.819487997685583   0.007592442454504633         0.880949016596915  1.0000   
         C         C         1.0       0.8026946302530029  0.9790501872539286  0.8692619137362435 1.0000   
         C         C         1.0       0.7962459710671328  0.9758355181680112  0.8340853440784824 1.0000   
         C         C         1.0       0.7936810721110561  0.040096180707264395         0.7210675004803749 1.0000   
         C         C         1.0       0.7972638545004416  0.07105747401072136           0.7090550667940948 1.0000   
         C         C         1.0       0.7855168731832495  0.10025834345679054           0.7263175407311512 1.0000   
         C         C         1.0       0.76592059362105    0.09467098351535774           0.7559849874817145 1.0000   
         C         C         1.0       0.7627813858101531  0.06292821293622097           0.7688034964264564 1.0000   
         C         C         1.0       0.780304267421449   0.035146574362049154         0.7540964491698463 1.0000   
         C         C         1.0       0.8057031975787065  0.13666830080395423           0.7224131254715578 1.0000   
         C         C         1.0       0.8850023043191267  0.11086775295924703           0.798711993112748  1.0000   
         C         C         1.0       0.8871503771778336  0.09784630564185381           0.7659607588136897 1.0000   
         C         C         1.0       0.8636197341465205  0.10741958591199317           0.7411041188869241 1.0000   
         C         C         1.0       0.8370734738120356  0.12956950305945913           0.7484505490988492 1.0000   
         C         C         1.0       0.8349742864562666  0.1408223598342515  0.7823974798698698 1.0000   
         C         C         1.0       0.8597022727051985  0.13288489947734047           0.8067100939648467 1.0000   
         C         C         1.0       0.7783055366660969  0.16728216532552923           0.7293764190713568 1.0000   
         C         C         1.0       0.7458327013896686  0.1659262935769513  0.715976633396967  1.0000   
         C         C         1.0       0.7268131168061075  0.1950501025608462  0.714160467134791  1.0000   
         C         C         1.0       0.7364932327978665  0.22520051849033088           0.7293446176310097 1.0000   
         C         C         1.0       0.7686763488043128  0.22640982648000055           0.7422994374020252 1.0000   
         C         C         1.0       0.7896730474555574  0.19889820185631782           0.7424181573056581 1.0000   
         C         C         1.0       0.8497191430999081  0.15654541727907376           0.6775145617758934 1.0000   
         C         C         1.0       0.8636400329275327  0.1593488508529311  0.6443123825801151 1.0000   
         C         C         1.0       0.8451778833636618  0.1485361697344482  0.6161077102823668 1.0000   
         C         C         1.0       0.8122818190596856  0.13446248608298592           0.6225695546981889 1.0000   
         C         C         1.0       0.8005769127871567  0.13190869200219463           0.655309351570588  1.0000   
         C         C         1.0       0.8188119555269914  0.14209631509516307           0.684562858119432  1.0000   
         H         H         1.0       0.8072063435476993  0.9329088852096872  0.7486615027818857 1.0000   
         H         H         1.0       0.8550297284613695  0.02938197006986898           0.7684443159648758 1.0000   
         H         H         1.0       0.9069097783742281  0.0044061045500636276        0.7500499855022537 1.0000   
         H         H         1.0       0.8615903493463665  0.9104434769934229  0.728925948424415  1.0000   
         H         H         1.0       0.8198804898720539  0.0525068272989484  0.8093931036810385 1.0000   
         H         H         1.0       0.8342074924186127  0.05793700753527298           0.868509356422752  1.0000   
         H         H         1.0       0.797489425343872   0.9567410612951629  0.884516302915392  1.0000   
         H         H         1.0       0.7834750955005885  0.9523744399108746  0.8244627270087485 1.0000   
         H         H         1.0       0.805605419331892   0.01823897176531042           0.7087730821158454 1.0000   
         H         H         1.0       0.8161287942146656  0.07513422879977782           0.6894350339435301 1.0000   
         H         H         1.0       0.7519662012903975  0.1144345281455628  0.7689124226242798 1.0000   
         H         H         1.0       0.745132062899984   0.059870741227150415         0.7899617964462905 1.0000   
         H         H         1.0       0.9060149600853796  0.07918516091616716           0.7599345718190108 1.0000   
         H         H         1.0       0.8670999102350031  0.09535970135102496           0.7159086519212655 1.0000   
         H         H         1.0       0.8158258970666571  0.15739242864196248           0.7904484704329504 1.0000   
         H         H         1.0       0.8572479814594958  0.1447368927420364  0.8321412314044782 1.0000   
         H         H         1.0       0.735365648420153   0.1447761529659456  0.7003894231837997 1.0000   
         H         H         1.0       0.7051121047853289  0.19333578265978205           0.6975424845064129 1.0000   
         H         H         1.0       0.7761979689295737  0.2522948003179282  0.7534805502100445 1.0000   
         H         H         1.0       0.8165498877121535  0.19917550925286    0.7502699942153503 1.0000   
         H         H         1.0       0.86449534950474    0.16578826726399973           0.6992053603707046 1.0000   
         H         H         1.0       0.8883999168424213  0.17215133616181563           0.6407508344748188 1.0000   
         H         H         1.0       0.7937281706345597  0.1295325132156355  0.6015615381967301 1.0000   
         H         H         1.0       0.7743067949234415  0.1242680778193221  0.6559026120303992 1.0000   
         C         C         1.0       0.8495341902898318  0.7892087965219184  0.7663474304248615 1.0000   
         C         C         1.0       0.8798155463675557  0.7821581903788822  0.7488603101166722 1.0000   
         C         C         1.0       0.9099571157483111  0.7849672149660353  0.7666328311806119 1.0000   
         C         C         1.0       0.9102499727284854  0.7947408762087551  0.8010235654996333 1.0000   
         C         C         1.0       0.879960131225219   0.7989147789733515  0.8161975003890107 1.0000   
         C         C         1.0       0.8498357396823254  0.7986727704546245  0.7986242930606164 1.0000   
         H         H         1.0       0.8805878715335167  0.7745430584374352  0.7222359309709422 1.0000   
         H         H         1.0       0.9332501916307936  0.7789368801962913  0.7537614828177095 1.0000   
         H         H         1.0       0.8747425972588103  0.8085509198680161  0.8415317476392564 1.0000   
         H         H         1.0       0.8257996273439143  0.8012471576854139  0.8119563416033373 1.0000   
         C         C         1.0       0.9624694643800088  0.830214251904853   0.8787001267726512 1.0000   
         C         C         1.0       0.9483084152105038  0.8057410407276059  0.8584927834224384 1.0000   
         C         C         1.0       0.9355626413651089  0.7781087995110008  0.8750991293264836 1.0000   
         C         C         1.0       0.9361061937756926  0.7751286399811548  0.9109474692410876 1.0000   
         C         C         1.0       0.950631705771318   0.799906296483285   0.9316503816861044 1.0000   
         C         C         1.0       0.9649272477307278  0.8271406785625478  0.9142894342885673 1.0000   
         C         C         1.0       0.9467345476351159  0.806808493656508   0.8168908320761895 1.0000   
         C         C         1.0       0.9506245844199653  0.8431843747670689  0.801135233837847  1.0000   
         C         C         1.0       0.931812720344412   0.8701671287282454  0.8131108969164488 1.0000   
         C         C         1.0       0.9306483954311976  0.9005149283875351  0.7967226611571799 1.0000   
         C         C         1.0       0.9499613704073222  0.9055559838431091  0.7678258098429225 1.0000   
         C         C         1.0       0.9698487332320703  0.8780307365458685  0.7554237114533411 1.0000   
         C         C         1.0       0.9677166686577882  0.8464573834712674  0.7697202249061598 1.0000   
         C         C         1.0       0.9733415766658005  0.746412166719897   0.8065344579089226 1.0000   
         C         C         1.0       0.00017521273829390616        0.7246591136703646 0.811804142843195  1.0000   
         C         C         1.0       0.030444545511315813          0.7382836684298819 0.8259726928575778 1.0000   
         C         C         1.0       0.03584973629678556           0.7723218961859775 0.8234639587355713 1.0000   
         C         C         1.0       0.009881874789698264          0.7942184484015877 0.8140706756514421 1.0000   
         C         C         1.0       0.9780459994628361  0.7807397596698316  0.808510776757575  1.0000   
         C         C         1.0       0.05393295694836598           0.716399535269926  0.848602284027304  1.0000   
         C         C         1.0       0.9958986792285917  0.7149604547631015  0.9439671813902595 1.0000   
         C         C         1.0       0.9939018093833379  0.687744303816816   0.9222213192511899 1.0000   
         C         C         1.0       0.010935306415072786          0.6885999371637509 0.8919634717818161 1.0000   
         C         C         1.0       0.03160380251262396           0.7162513896326869 0.8826392368885043 1.0000   
         C         C         1.0       0.029802237371630014          0.745214888639999  0.904745084209046  1.0000   
         C         C         1.0       0.015668010980057323          0.7424966383457543 0.9360826766599935 1.0000   
         C         C         1.0       0.0922186875404439  0.7280784075649296  0.8536297001376587 1.0000   
         C         C         1.0       0.11057538810485959           0.7338102256830571 0.8223866616778782 1.0000   
         C         C         1.0       0.1448906430415009  0.7409695852501379  0.8229881572727575 1.0000   
         C         C         1.0       0.16065837797152122           0.7434688697803725 0.8558168902773398 1.0000   
         C         C         1.0       0.14376979144637134           0.7341524750157391 0.8845619596937415 1.0000   
         C         C         1.0       0.11012862684980482           0.7263706566638855 0.8842097880369573 1.0000   
         C         C         1.0       0.07643400029510437           0.6520825206312123 0.8592463837260326 1.0000   
         C         C         1.0       0.08783154994229694           0.6209366337426329 0.8472891350781224 1.0000   
         C         C         1.0       0.08499524798902537           0.6124369417309046 0.8133653199230911 1.0000   
         C         C         1.0       0.07404958047226494           0.6364849437667932 0.789840255760687  1.0000   
         C         C         1.0       0.06527170426452326           0.668213129097885  0.8017113211535455 1.0000   
         C         C         1.0       0.06495816341523451           0.6772554569373594 0.8360614574019815 1.0000   
         H         H         1.0       0.9797015302457656  0.8495770015788924  0.8680987753459569 1.0000   
         H         H         1.0       0.9263930243584879  0.7544877368363181  0.8627887692732705 1.0000   
         H         H         1.0       0.9235018609731097  0.752489551531369   0.921273043896242  1.0000   
         H         H         1.0       0.9797340524025402  0.8453027186773292  0.9299840131500959 1.0000   
         H         H         1.0       0.914190232341581   0.8651571034460492  0.8356979689327717 1.0000   
         H         H         1.0       0.9156691357744906  0.9210276544797988  0.8074890373376242 1.0000   
         H         H         1.0       0.9815166855956629  0.8817171702427822  0.729494242658308  1.0000   
         H         H         1.0       0.9780801746038967  0.8260397168114734  0.755846432362477  1.0000   
         H         H         1.0       0.9472409567177005  0.7358765693101209  0.8078042854457347 1.0000   
         H         H         1.0       0.9949819477645628  0.6986562804776005  0.811381400451129  1.0000   
         H         H         1.0       0.06006305098359956           0.7830355149004354 0.8300957898269398 1.0000   
         H         H         1.0       0.016948637579469183          0.821163019491898  0.8123710034293049 1.0000   
         H         H         1.0       0.9792486257247444  0.6647874590452106  0.927661676747005  1.0000   
         H         H         1.0       0.0072119611715157905         0.6669081926922088 0.8755326160009687 1.0000   
         H         H         1.0       0.03780654838894293           0.7701519953017633 0.8952299868151975 1.0000   
         H         H         1.0       0.016246770590522708          0.7666432797083532 0.9505658901909213 1.0000   
         H         H         1.0       0.09737945674203624           0.7378138757807016 0.7968476463989168 1.0000   
         H         H         1.0       0.15663849721096762           0.7438144969623853 0.7975942907307928 1.0000   
         H         H         1.0       0.15631951156195587           0.7352265738937201 0.9095419977785446 1.0000   
         H         H         1.0       0.09763431810391444           0.7152261381899235 0.9066020922455159 1.0000   
         H         H         1.0       0.0792101428696264  0.6571457944053858  0.8865781481519731 1.0000   
         H         H         1.0       0.09559446065952727           0.6022927713080313 0.86867345268896   1.0000   
         H         H         1.0       0.07596554284435018           0.6276858379177295 0.7612518886573564 1.0000   
         H         H         1.0       0.057194744299044205          0.68797119131731   0.7812861630737037 1.0000   
         C         C         1.0       0.9197778233162734  0.9433625327013658  0.7196938740715767 1.0000   
         C         C         1.0       0.9465231489399146  0.9400075118213004  0.7497743728876308 1.0000   
         H         H         1.0       0.9176768343543857  0.9192280703812346  0.7051498772436434 1.0000   
         H         H         1.0       0.9283774648159704  0.9639994639642148  0.7002383114752153 1.0000   
         H         H         1.0       0.9437168187794365  0.9612352430935379  0.7688674214950812 1.0000   
         H         H         1.0       0.9730263846761236  0.9466315809500878  0.7414471297263663 1.0000   
         C         C         1.0       0.8473883391666487  0.9869448711854734  0.9384091500601659 1.0000   
         C         C         1.0       0.8275634525585935  0.013891334000884825         0.9196454490600184 1.0000   
         H         H         1.0       0.8573212532574461  0.00030310751605777675       0.9623676940328829 1.0000   
         H         H         1.0       0.8693302806149583  0.9827308627104232  0.9211713627246462 1.0000   
         H         H         1.0       0.8433349441384     0.039246561615978726         0.9242421117836531 1.0000   
         H         H         1.0       0.8013312060865351  0.017869980302757327         0.9323372219653966 1.0000   
         C         C         1.0       0.9501765281707484  0.8019903748813217  0.9696131060973439 1.0000   
         C         C         1.0       0.9223928442939094  0.7839814267746215  0.9894881690519205 1.0000   
         H         H         1.0       0.9759207011969327  0.791950091176234   0.9788605255647589 1.0000   
         H         H         1.0       0.9509870118423814  0.8301774326209457  0.9786178555636427 1.0000   
         H         H         1.0       0.9293142635179105  0.7823865457118742  0.018124173630887697         1.0000   
         H         H         1.0       0.9225383948474054  0.7576017154898079  0.978982561012524  1.0000   
         C         C         1.0       0.5716117564341099  0.8549884315330629  0.10894537728734041          1.0000   
         C         C         1.0       0.5587135968885107  0.8391648123801798  0.1429444244026744 1.0000   
         H         H         1.0       0.5620396061741015  0.8384911317194841  0.08748374442819586          1.0000   
         H         H         1.0       0.5617263305606965  0.8807973217155116  0.10344303125506216          1.0000   
         H         H         1.0       0.57324685125147    0.8160452244009128  0.146036431102404  1.0000   
         H         H         1.0       0.5322053288672367  0.8290429057680664  0.14014511419524808          1.0000   
         C         C         1.0       0.4517705956741979  0.7171131299639792  0.37905580829858376          1.0000   
         C         C         1.0       0.4328291466307757  0.6886502955988466  0.3576810116638012 1.0000   
         H         H         1.0       0.4794468617620716  0.7123702776345151  0.3779055104150003 1.0000   
         H         H         1.0       0.44586066297573673           0.714043125606094  0.40686986347073373          1.0000   
         H         H         1.0       0.4458000947132361  0.6642227969988     0.3624112265881472 1.0000   
         H         H         1.0       0.437247265872869   0.6942937442153477  0.330520559109744  1.0000   
         C         C         1.0       0.006473173174396551          0.6923826426761335 0.007756298802012562         1.0000   
         C         C         1.0       0.9832484424342789  0.7114447458874874  0.9813145089551844 1.0000   
         H         H         1.0       0.010451850483514047          0.6654413299230003 0.0016064327207312434        1.0000   
         H         H         1.0       0.992419803068636   0.6896779467467191  0.03168293824028168          1.0000   
         H         H         1.0       0.9585653877980324  0.6991969903089543  0.9784039718576727 1.0000   
         H         H         1.0       0.9757178689088165  0.7366726834856473  0.992241458245443  1.0000   
         C         C         1.0       0.30604145103463515           0.8290272995493052 0.22004262431875524          1.0000   
         C         C         1.0       0.3301837053161251  0.8050127262162428  0.23889286290466702          1.0000   
         H         H         1.0       0.3163498479029375  0.8353020188080603  0.19559564699721702          1.0000   
         H         H         1.0       0.3038762152424136  0.8533606182299189  0.23281632008173478          1.0000   
         H         H         1.0       0.3448644616074212  0.7894582245006829  0.2191336515202533 1.0000   
         H         H         1.0       0.31460501094128474           0.784515983922034  0.25236271268982524          1.0000   
         C         C         1.0       0.15868656142613494           0.6694353128924637 0.2724509944300975 1.0000   
         C         C         1.0       0.18707846303942174           0.6428082097617791 0.26332751531431015          1.0000   
         H         H         1.0       0.13468984886617505           0.6580079689610664 0.265802391515064  1.0000   
         H         H         1.0       0.15726987060866376           0.6716669156407297 0.30119538868028   1.0000   
         H         H         1.0       0.19717706376879052           0.644392044822713  0.2364260781606966 1.0000   
         H         H         1.0       0.17310783983387065           0.6178702648575649 0.2669966567658807 1.0000   
         C         C         1.0       0.4962196406196587  0.5959407500209469  0.4404548415592278 1.0000   
         C         C         1.0       0.4677924075700144  0.6066815548827168  0.4151096529797545 1.0000   
         H         H         1.0       0.48800564677053004           0.602499455197771  0.4683488429805297 1.0000   
         H         H         1.0       0.5192366827133834  0.6103074442153772  0.43389768301245457          1.0000   
         H         H         1.0       0.47518944149664427           0.6030461790841619 0.3872695614248563 1.0000   
         H         H         1.0       0.46299750465319994           0.6345564206992452 0.41613030480090313          1.0000   
         C         C         1.0       0.8570292608425755  0.15427456940138115           0.5788410102773667 1.0000   
         C         C         1.0       0.8379583665696779  0.18637522930777514           0.5661531521855637 1.0000   
         H         H         1.0       0.8847368475852522  0.15893828211948507           0.579203966965765  1.0000   
         H         H         1.0       0.8535188363522562  0.12961785400974402           0.5651464643677817 1.0000   
         H         H         1.0       0.810783580218531   0.18250993960547407           0.5702743391660272 1.0000   
         H         H         1.0       0.8419180779355245  0.18960236527429378           0.5389995029718719 1.0000   
         C         C         1.0       0.710593577436552   0.2871536415445089  0.4913742938132518 1.0000   
         C         C         1.0       0.7061858803042995  0.31959909320736585           0.5161193038523003 1.0000   
         H         H         1.0       0.6901947998874898  0.28488540715135585           0.47249621800166564          1.0000   
         H         H         1.0       0.7035673490789984  0.2643369785974557  0.5088540548375107 1.0000   
         H         H         1.0       0.7293524393852492  0.3241552335245507  0.5284501228521674 1.0000   
         H         H         1.0       0.6866282083876016  0.315926553971072   0.5369619791630701 1.0000   
         C         C         1.0       0.5702732202512676  0.07461481414943624           0.2533801584846767 1.0000   
         C         C         1.0       0.5937375481735     0.08232784631316237           0.2838308250892932 1.0000   
         H         H         1.0       0.5794815333114451  0.08516328097639439           0.22937279068182548          1.0000   
         H         H         1.0       0.5460503138770653  0.08890335674760116           0.2577363099527145 1.0000   
         H         H         1.0       0.5821459440858177  0.06705742315391068           0.3055967677150192 1.0000   
         H         H         1.0       0.5891954676070402  0.10926148570324519           0.2901609041148755 1.0000   
         C         C         1.0       0.7684231030703296  0.031359837518803335         0.11418868728743954          1.0000   
         C         C         1.0       0.7902318719160516  0.9995889308159752  0.1037859707644308 1.0000   
         H         H         1.0       0.7428127708898721  0.033271500314218994         0.10172240235095564          1.0000   
         H         H         1.0       0.7806167195262544  0.05573535999921653           0.10466954980803021          1.0000   
         H         H         1.0       0.7964444440526276  0.0051481511918474165        0.07662269641171814          1.0000   
         H         H         1.0       0.8154211771175691  0.9982600572248225  0.1164253507128967 1.0000   
         C         C         1.0       0.8932617461571648  0.15239764391421087           0.42307025734854364          1.0000   
         C         C         1.0       0.9170401908212926  0.18395688496648202           0.4218417290467247 1.0000   
         H         H         1.0       0.8808315480368734  0.1472910469305835  0.4487439330040759 1.0000   
         H         H         1.0       0.9070553030027206  0.12952175663412735           0.4170258369809718 1.0000   
         H         H         1.0       0.9266906747597413  0.18639688692966686           0.3958916858186922 1.0000   
         H         H         1.0       0.9384411037394808  0.18058376287291117           0.4400440392702456 1.0000   
         C         C         1.0       0.6529069708441995  0.23317366777161333           0.35625844310354127          1.0000   
         C         C         1.0       0.6431083572720989  0.264710448968094   0.3351886090872287 1.0000   
         H         H         1.0       0.6358248809095057  0.2120214911799416  0.351658164038314  1.0000   
         H         H         1.0       0.6457506427477928  0.236946620260132   0.3839741016920013 1.0000   
         H         H         1.0       0.6154127174758438  0.26268633605637964           0.32887775364443467          1.0000   
         H         H         1.0       0.6567637895798648  0.2657722841322294  0.3097109858617427 1.0000   
         C         C         1.0       0.3158791544338937  0.48794187128252087           0.5912853975134351 1.0000   
         C         C         1.0       0.30744807156740994           0.44854326415315043          0.591324969202317  1.0000   
         H         H         1.0       0.33803743216871934           0.4944236039714876 0.6092915886585247 1.0000   
         H         H         1.0       0.2931014512644452  0.5019192319740998  0.6015660197595618 1.0000   
         H         H         1.0       0.28935019497442616           0.4398131606063796 0.5694501166108917 1.0000   
         H         H         1.0       0.29436736672513203           0.44117438855899055          0.6141118360856713 1.0000   
         C         C         1.0       0.5622605111948453  0.3719207151974321  0.5876418172441689 1.0000   
         C         C         1.0       0.5731123733922339  0.36653760997708723           0.5492300824421715 1.0000   
         H         H         1.0       0.5681395405366472  0.39844137351914116           0.5949561199852915 1.0000   
         H         H         1.0       0.5759530791779369  0.3559394102270991  0.6072106328290463 1.0000   
         H         H         1.0       0.6015040809995229  0.36698091559840873           0.5449600328415956 1.0000   
         H         H         1.0       0.5674002802687039  0.3400027641369561  0.5409700095574219 1.0000   
         C         C         1.0       0.21843372418100923           0.626616150608293  0.08343352707885582          1.0000   
         C         C         1.0       0.2051393625423828  0.5934076260816163  0.06496813168248505          1.0000   
         H         H         1.0       0.2471715842524326  0.6308896807415597  0.07852627812355359          1.0000   
         H         H         1.0       0.217047997267133   0.6238577974713501  0.11147904995079513          1.0000   
         H         H         1.0       0.1771617716959423  0.591622538491397   0.06990839465345311          1.0000   
         H         H         1.0       0.2124432823099595  0.5701622622859774  0.08052849864046069          1.0000   
         C         C         1.0       0.1030908703787509  0.5803378488964502  0.7998317949813215 1.0000   
         C         C         1.0       0.14364581429074458           0.5835522419156927 0.800800356644456  1.0000   
         H         H         1.0       0.09424453234514972           0.5558231367959203 0.8093909326524913 1.0000   
         H         H         1.0       0.09599945937245655           0.5759162414388326 0.7722056619589364 1.0000   
         H         H         1.0       0.15120128758486018           0.6055688420272282 0.7850731720532649 1.0000   
         H         H         1.0       0.15194159355907297           0.5622291593065302 0.7846359616929783 1.0000   
         C         C         1.0       0.3502395365347667  0.4512481846387456  0.7131484465439792 1.0000   
         C         C         1.0       0.31832225004562525           0.4328697418568181 0.6959254534993706 1.0000   
         H         H         1.0       0.35181781952731245           0.47652175663892266          0.7003628652261759 1.0000   
         H         H         1.0       0.3740099740109446  0.4367494098235655  0.7064375740375375 1.0000   
         H         H         1.0       0.3175174496481568  0.441608127426807   0.6688998520586793 1.0000   
         H         H         1.0       0.2949662587264958  0.4453488601376529  0.7069130601054655 1.0000   
         C         C         1.0       0.014803455762880446          0.3245941047517162 0.6779592462294493 1.0000   
         C         C         1.0       0.02044984287209184           0.33462283903764617          0.7170351147389712 1.0000   
         H         H         1.0       0.029958923655976077          0.3422383286059865 0.6633515932415271 1.0000   
         H         H         1.0       0.02838639410175281           0.29917820868494227          0.6699946956494129 1.0000   
         H         H         1.0       0.00730329447756195           0.3588349652899727 0.7218731225517337 1.0000   
         H         H         1.0       0.04724205296445172           0.34043555428266803          0.719562604736778  1.0000   
         C         C         1.0       0.945723072567306   0.1024213497211453  0.8205093189719805 1.0000   
         C         C         1.0       0.9071867006785799  0.10144558998532542           0.8294867653793851 1.0000   
         H         H         1.0       0.9596638629050345  0.08456713049592432           0.8375535522204922 1.0000   
         H         H         1.0       0.9507980044756008  0.0931033343784004  0.7948265287076635 1.0000   
         H         H         1.0       0.9028488158762056  0.11603094078011902           0.851822294915859  1.0000   
         H         H         1.0       0.9004154812206386  0.07452937699632466           0.8362507217570441 1.0000   
         C         C         1.0       0.17317496295863366           0.3899568174943151 0.7409890564736041 1.0000   
         C         C         1.0       0.20771055821130854           0.40959280940958653          0.7392116256064967 1.0000   
         H         H         1.0       0.15725747795090284           0.4070285165626958 0.7553825791284299 1.0000   
         H         H         1.0       0.16304564173594496           0.39021459236687583          0.7131054555166315 1.0000   
         H         H         1.0       0.20932577832844265           0.432179472661752  0.721945079280479  1.0000   
         H         H         1.0       0.22381730325218355           0.39063355679094086          0.7251847697911802 1.0000   
         C         C         1.0       0.20212168541853498           0.16995064828192494          0.6887849355501557 1.0000   
         C         C         1.0       0.20885095475471427           0.19015351294722999          0.6550728154332416 1.0000   
         H         H         1.0       0.22356693198025196           0.15276376697112848          0.6955368522359464 1.0000   
         H         H         1.0       0.18495114852451722           0.14808237179986153          0.6848841033836501 1.0000   
         H         H         1.0       0.18553167808866014           0.20303035623596158          0.6451731450964534 1.0000   
         H         H         1.0       0.21935662962070007           0.17093877321273404          0.6350734018829761 1.0000   
         C         C         1.0       0.4059226140783343  0.9673135225301464  0.4606246603847246 1.0000   
         C         C         1.0       0.431026937744053   0.9732222397848281  0.43100115931066435          1.0000   
         H         H         1.0       0.4206908232730901  0.9603310216790327  0.484287430495146  1.0000   
         H         H         1.0       0.39091782526284335           0.9440866584603083 0.4558921566364335 1.0000   
         H         H         1.0       0.45754874381401944           0.9761324811710987 0.43936657434110216          1.0000   
         H         H         1.0       0.4214775875635655  0.9966192071663215  0.41720204355860446          1.0000   
         C         C         1.0       0.4314243052513359  0.29833364654971134           0.4328694397579439 1.0000   
         C         C         1.0       0.3968422519043809  0.30455960250391567           0.4151086551497293 1.0000   
         H         H         1.0       0.451782902158618   0.309476408277053   0.4185318726672176 1.0000   
         H         H         1.0       0.4394654346887803  0.27158011164683227           0.43174063610481   1.0000   
         H         H         1.0       0.40051039864914656           0.30895792688472395          0.38773702202910404          1.0000   
         H         H         1.0       0.38884694532672986           0.3290343839059944 0.42415838763331826          1.0000   
         C         C         1.0       0.8985989185887465  0.43416234070074694           0.3540042037526383 1.0000   
         C         C         1.0       0.8779370001468686  0.43723859645819607           0.38812775750636364          1.0000   
         H         H         1.0       0.8883565866545083  0.4124218038181037  0.33928013917431954          1.0000   
         H         H         1.0       0.8869031759435324  0.45597899517562035           0.33944086870758217          1.0000   
         H         H         1.0       0.8527081003534518  0.4487948713416216  0.38167181258977406          1.0000   
         H         H         1.0       0.8912502577271358  0.4561531480202828  0.40519456324003816          1.0000   
         C         C         1.0       0.12867493835015154           0.24167413613332953          0.47430135446274724          1.0000   
         C         C         1.0       0.15989783538841273           0.24245572900484938          0.49984589715864625          1.0000   
         H         H         1.0       0.10231403595874086           0.24496963893271945          0.48767258925944834          1.0000   
         H         H         1.0       0.1285856528366173  0.2159070117082465  0.4631010073609995 1.0000   
         H         H         1.0       0.1647148734831492  0.26685271015527295           0.5110867151368702 1.0000   
         H         H         1.0       0.15214248636777652           0.22460703999578102          0.5198301770656752 1.0000   
         C         C         1.0       0.314560448132518   0.3858987663637058  0.3996215434002368 1.0000   
         C         C         1.0       0.29377841211179495           0.36727180087973255          0.42722821090743135          1.0000   
         H         H         1.0       0.30246576762408545           0.38632423582370823          0.37318057647680875          1.0000   
         H         H         1.0       0.33868454781669066           0.3713169507805564 0.3943055407550375 1.0000   
         H         H         1.0       0.29403939188842315           0.3815842074573443 0.4520524181981052 1.0000   
         H         H         1.0       0.3073456895640259  0.3426242858080278  0.4322394952092877 1.0000   
         C         C         1.0       0.3331365132606529  0.3685022211714242  0.9907261899060337 1.0000   
         C         C         1.0       0.354012499481247   0.37152409605538855           0.9588229156677041 1.0000   
         H         H         1.0       0.30893349493651595           0.3545701147879269 0.9835299870459889 1.0000   
         H         H         1.0       0.32399035440424895           0.3934991686494165 0.0009452821104944942        1.0000   
         H         H         1.0       0.38161711560471906           0.37971772170457097          0.9670533305553183 1.0000   
         H         H         1.0       0.3547297773369433  0.3462069229627889  0.9451717954599632 1.0000   
         C         C         1.0       0.186450131768763   0.2649130327357139  0.24381330291081318          1.0000   
         C         C         1.0       0.16397178248451133           0.29728656201485726          0.23226029466940637          1.0000   
         H         H         1.0       0.18570181436263145           0.24373773254012362          0.2249777111388558 1.0000   
         H         H         1.0       0.18000446007015045           0.2546760227549462 0.2686751239730728 1.0000   
         H         H         1.0       0.17741372821620807           0.31263555240523605          0.21263188823418613          1.0000   
         H         H         1.0       0.13862871148751973           0.2886458576026828 0.22308665000599048          1.0000   
         C         C         1.0       0.2838052886435738  0.1544759180783223  0.27179313769801494          1.0000   
         C         C         1.0       0.24864775706783235           0.1696730398293901 0.28919704099651283          1.0000   
         H         H         1.0       0.2960115264643571  0.13251487132536874           0.28515855146929847          1.0000   
         H         H         1.0       0.2764682371398086  0.14254367898679549           0.24668809888920207          1.0000   
         H         H         1.0       0.23176903220451742           0.1501123363887931 0.28378311938023376          1.0000   
         H         H         1.0       0.23779067682448635           0.1903223770523458 0.2736573194326993 1.0000   
         C         C         1.0       0.42225275746601215           0.3829692713001553 0.316270603808244  1.0000   
         C         C         1.0       0.4120889690624447  0.40649345501912104           0.346493235523516  1.0000   
         H         H         1.0       0.4472974962406295  0.37109276612300085           0.3204098434314347 1.0000   
         H         H         1.0       0.4239664450650712  0.39621831500281196           0.29231977569609957          1.0000   
         H         H         1.0       0.39387077254016106           0.3920797722843072 0.36237247414522145          1.0000   
         H         H         1.0       0.3964369380212286  0.4267010775234063  0.3370422456956735 1.0000   
         C         C         1.0       0.7822821939143074  0.7825936278207682  0.7592489987475151 1.0000   
         C         C         1.0       0.817571285666789   0.7922718163936179  0.7433977369861845 1.0000   
         H         H         1.0       0.7640745663402049  0.7998679386584232  0.7466520823855756 1.0000   
         H         H         1.0       0.7815515260552385  0.7941831074079156  0.7847824552809375 1.0000   
         H         H         1.0       0.8162991598795595  0.8179138522971462  0.7349645338174046 1.0000   
         H         H         1.0       0.8221666064006213  0.7768742442233002  0.7184012388329208 1.0000   
         C         C         1.0       0.8074493826065827  0.41098919846049    0.7084678438831279 1.0000   
         C         C         1.0       0.7812848228539995  0.39554706036707443           0.7324939198133059 1.0000   
         H         H         1.0       0.8286387345484163  0.4239410609829949  0.7239992718876522 1.0000   
         H         H         1.0       0.7947604346090564  0.4327737687155693  0.69219767266286   1.0000   
         H         H         1.0       0.792051793116156   0.37356248882010235           0.7467825975714574 1.0000   
         H         H         1.0       0.7586461318827508  0.3858940505295828  0.7184571573600491 1.0000   
         C         C         1.0       0.8707741594594198  0.30776379305524393           0.24152414582436232          1.0000   
         C         C         1.0       0.8310679368953283  0.30091348354054354           0.24084505541785817          1.0000   
         H         H         1.0       0.8862548499992621  0.2847017001219013  0.23908807932423184          1.0000   
         H         H         1.0       0.8734936573524087  0.31770184835954307           0.2685666107236255 1.0000   
         H         H         1.0       0.8141937839188703  0.3215369664646489  0.2503503151160288 1.0000   
         H         H         1.0       0.8225420220642591  0.2972027429135057  0.2152847933794083 1.0000   
         C         C         1.0       0.06831431729749493           0.42113272593419887          0.16187841321973281          1.0000   
         C         C         1.0       0.08734697251252244           0.39601229610932925          0.1875706354970957 1.0000   
         H         H         1.0       0.07837577280772834           0.4190123490855369 0.13499736880389374          1.0000   
         H         H         1.0       0.07619229581902998           0.447370490443217  0.16870719923417116          1.0000   
         H         H         1.0       0.11484300910483403           0.39662404481353725          0.18145457777821994          1.0000   
         H         H         1.0       0.07931583855948454           0.3706102604674455 0.17976413810778172          1.0000   
         C         C         1.0       0.8926293926195054  0.5468933816637134  0.9004187689530445 1.0000   
         C         C         1.0       0.9201708895377764  0.5204231555256861  0.909392411430773  1.0000   
         H         H         1.0       0.9032728822053271  0.567045106034477   0.8840173019908952 1.0000   
         H         H         1.0       0.8850538238116029  0.5609785976934246  0.9232714085726162 1.0000   
         H         H         1.0       0.9286229148986734  0.5078138505635617  0.8853998027740424 1.0000   
         H         H         1.0       0.9428020528938601  0.5342960225534996  0.920584562229376  1.0000   
         C         C         1.0       0.9344438078829255  0.24857389114384618           0.9596496651894172 1.0000   
         C         C         1.0       0.9417194183436508  0.27089029501633    0.9904837171121665 1.0000   
         H         H         1.0       0.9077809203823441  0.25074173074840306           0.9512760040460351 1.0000   
         H         H         1.0       0.9344587290354427  0.2228199284261888  0.9658699447718002 1.0000   
         H         H         1.0       0.9698225170323578  0.2734776547689861  0.9962327852783034 1.0000   
         H         H         1.0       0.9337336359889977  0.25548257041065753           0.015144248904961355         1.0000   
         C         C         1.0       0.3651451293054031  0.2346274743140738  0.8448407389719529 1.0000   
         C         C         1.0       0.3622986970070632  0.2122373860100767  0.8110726347538664 1.0000   
         H         H         1.0       0.3450002524211953  0.2531048426107809  0.8464671109504783 1.0000   
         H         H         1.0       0.3563157624848695  0.2159630457453557  0.8632205857135234 1.0000   
         H         H         1.0       0.34308214199861103           0.19155875729331653          0.8154168212835697 1.0000   
         H         H         1.0       0.3836074920937125  0.19488811170988088           0.8031662794489021 1.0000   
         C         C         1.0       0.5291257508953267  0.3065462027090133  0.061530884691309407         1.0000   
         C         C         1.0       0.5307395537930494  0.3273255385970948  0.02839624860248735          1.0000   
         H         H         1.0       0.5427851089575481  0.282341183551639   0.05468899423656026          1.0000   
         H         H         1.0       0.5441945060647616  0.3228680040270963  0.07805772258715825          1.0000   
         H         H         1.0       0.5537569552764388  0.34065259731444625           0.023476728130506608         1.0000   
         H         H         1.0       0.5108905340541472  0.3472433141375838  0.030702441494290023         1.0000   
         C         C         1.0       0.7233748483580607  0.3557324565273434  0.9578724481503095 1.0000   
         C         C         1.0       0.7316469793901325  0.3939711158259946  0.9604024064913012 1.0000   
         H         H         1.0       0.7461992981644464  0.3406107953253164  0.9509091038857684 1.0000   
         H         H         1.0       0.7138927598794719  0.3481279352046455  0.9836867823217601 1.0000   
         H         H         1.0       0.7167765880570721  0.40309851064655794           0.9832188921101269 1.0000   
         H         H         1.0       0.719514878688228   0.4123934429134419  0.9427239345600398 1.0000   
         C         C         1.0       0.6024059779004635  0.4723874401572425  0.8515848658598755 1.0000   
         C         C         1.0       0.6294395642166445  0.4842405799760102  0.8798130631432541 1.0000   
         H         H         1.0       0.6063443071510486  0.48713999590602963           0.8271920766094409 1.0000   
         H         H         1.0       0.5762028119012308  0.4795548919379155  0.8603454728403263 1.0000   
         H         H         1.0       0.6307207823889567  0.4662763980950486  0.902047143375271  1.0000   
         H         H         1.0       0.6194537104976006  0.5065860729916472  0.8930303748457921 1.0000   
         C         C         1.0       0.7145633909836239  0.25592395105973026           0.7202430556285994 1.0000   
         C         C         1.0       0.6759660272000547  0.2554144583456513  0.7243641839402867 1.0000   
         H         H         1.0       0.7259166426852732  0.27946886100821866           0.7334355977871481 1.0000   
         H         H         1.0       0.718866480853904   0.2607389427638891  0.6923011826496555 1.0000   
         H         H         1.0       0.6643767225197047  0.2708880556396828  0.7034628770537225 1.0000   
         H         H         1.0       0.6661891051650752  0.2303365155996689  0.721629242430112  1.0000   
         C         C         1.0       0.10057900585923517           0.942076510307632  0.228920567884183  1.0000   
         C         C         1.0       0.07724590227705648           0.9172763029323586 0.21126150569608268          1.0000   
         H         H         1.0       0.09696934247820357           0.9675001242817359 0.21831238600110794          1.0000   
         H         H         1.0       0.12755233075327255           0.9387852912037398 0.2229562584590909 1.0000   
         H         H         1.0       0.06676592492409242           0.9253581114262491 0.1861229105254816 1.0000   
         H         H         1.0       0.05293750132391662           0.911263278356831  0.22672776637566414          1.0000   
         C         C         1.0       0.1454297476117478  0.08811604773640308           0.40500969397082165          1.0000   
         C         C         1.0       0.18198213209536296           0.09226382218650837          0.39211843953316866          1.0000   
         H         H         1.0       0.12999806594329846           0.10954039527781746          0.39370801494161095          1.0000   
         H         H         1.0       0.14355958974939387           0.09225733081268452          0.43246160201998285          1.0000   
         H         H         1.0       0.1870679045215969  0.08408573655054852           0.36376801075612697          1.0000   
         H         H         1.0       0.18545581326490107           0.12064484991322823          0.38730766233105257          1.0000   
         C         C         1.0       0.7774320984582281  0.9160970800669012  0.3237781468777069 1.0000   
         C         C         1.0       0.8153695143840852  0.9033418293314945  0.32336535522575577          1.0000   
         H         H         1.0       0.7691596692377187  0.9159551022214658  0.3514448711723766 1.0000   
         H         H         1.0       0.7607698239421102  0.8970304893441607  0.3109490514704908 1.0000   
         H         H         1.0       0.828255385890964   0.9112809437734858  0.29933096394144915          1.0000   
         H         H         1.0       0.8172485516441041  0.8742486529106983  0.32248108092806566          1.0000   
         C         C         1.0       0.6583018138021942  0.8934271185832021  0.7483048634301284 1.0000   
         C         C         1.0       0.6573690142231361  0.9324397289143901  0.7498056631906    1.0000   
         H         H         1.0       0.6314773037283389  0.8867888609362117  0.7520127783151415 1.0000   
         H         H         1.0       0.6716408741303433  0.8819497881008803  0.7718038603018146 1.0000   
         H         H         1.0       0.6389864650842333  0.9403101086848027  0.7716968241182823 1.0000   
         H         H         1.0       0.6445558653792721  0.9435104126501345  0.7274397367368489 1.0000   
         C         C         1.0       0.8126469784390385  0.014052316777638074         0.5044980300002687 1.0000   
         C         C         1.0       0.8492377168216149  0.01586571628660649           0.5207810992507742 1.0000   
         H         H         1.0       0.8140245383696899  0.02475519095814449           0.47875360223550945          1.0000   
         H         H         1.0       0.7967321487956533  0.02974068419626752           0.5231582509061715 1.0000   
         H         H         1.0       0.8561570280192312  0.04167685105851304           0.5262259994056971 1.0000   
         H         H         1.0       0.8461108615227446  0.006562437829900736         0.5459529662774147 1.0000   
         C         C         1.0       0.6835929201128585  0.915943106416954   0.3567047534143753 1.0000   
         C         C         1.0       0.6796350859591183  0.8780369426267408  0.3683435173594416 1.0000   
         H         H         1.0       0.7085590473773636  0.9193595268023154  0.3448353776977026 1.0000   
         H         H         1.0       0.6880866652641964  0.9332020299708305  0.37866972357503614          1.0000   
         H         H         1.0       0.6872042643947053  0.8589813625010431  0.34872695238584217          1.0000   
         H         H         1.0       0.6526602360842917  0.8724782547209609  0.37553240925136827          1.0000   
         C         C         1.0       0.7796367243482812  0.7015334466910111  0.5974062526279159 1.0000   
         C         C         1.0       0.7712982961138628  0.6639817344055718  0.6034202168132368 1.0000   
         H         H         1.0       0.8028068527923603  0.7073758971726386  0.6100864339854599 1.0000   
         H         H         1.0       0.7887805702025251  0.7023242073429592  0.5713813679955239 1.0000   
         H         H         1.0       0.7931773607155331  0.6497954671458789  0.5965418665011307 1.0000   
         H         H         1.0       0.7510236445150581  0.6561184527383206  0.5856887755781024 1.0000   
         C         C         1.0       0.7919928526642485  0.5052860193713344  0.3448074975640174 1.0000   
         C         C         1.0       0.7551780526437881  0.5015918211233791  0.33148020358760344          1.0000   
         H         H         1.0       0.8024088888597234  0.4788094490771664  0.34618968388580096          1.0000   
         H         H         1.0       0.7882952266093612  0.5132581540661726  0.37289070746237746          1.0000   
         H         H         1.0       0.7569943163523868  0.49673832535199924           0.30423993734929233          1.0000   
         H         H         1.0       0.7414425372237677  0.52613448434719    0.33430091973235554          1.0000   
         C         C         1.0       0.8788920534843081  0.5833958981200699  0.14818343358948613          1.0000   
         C         C         1.0       0.857775904409339   0.5506961594259092  0.14057761236708896          1.0000   
         H         H         1.0       0.8657763133807117  0.6060471754001563  0.13973375015003767          1.0000   
         H         H         1.0       0.9033969117639905  0.5852178399864054  0.13446543851615095          1.0000   
         H         H         1.0       0.850740629473088   0.5501440746765883  0.11428729473429211          1.0000   
         H         H         1.0       0.8331000192569848  0.5538799380406377  0.1535597034408081 1.0000   
         C         C         1.0       0.05909815158186049           0.5945631158940654 0.3462908533398929 1.0000   
         C         C         1.0       0.029399944904759057          0.6145816539365526 0.3610669520436418 1.0000   
         H         H         1.0       0.0830045815487146  0.6009158398682667  0.3600514684635218 1.0000   
         H         H         1.0       0.062476911691840886          0.6067872059325878 0.322425662907424  1.0000   
         H         H         1.0       0.03818383820080018           0.6408158782759685 0.3665647125704631 1.0000   
         H         H         1.0       0.02502809875757306           0.6041255341610628 0.38915643692769164          1.0000   
         C         C         1.0       0.016132941849176685          0.8144303000819718 0.3818431264650857 1.0000   
         C         C         1.0       0.009684663141170446          0.8112406508418393 0.42267666117435754          1.0000   
         H         H         1.0       0.01633258694069717           0.8415034686554326 0.37431165566833635          1.0000   
         H         H         1.0       0.04122142760491032           0.8055936592731051 0.37577130842973505          1.0000   
         H         H         1.0       0.0342609922663919  0.8116591047994384  0.43609026021037045          1.0000   
         H         H         1.0       0.001082354743181524          0.7861397346842354 0.4294537342409723 1.0000   
         C         C         1.0       0.9021440498312756  0.7826505678925485  0.4897864854728856 1.0000   
         C         C         1.0       0.8731995871070035  0.7765169534325107  0.5149355383442289 1.0000   
         H         H         1.0       0.9236918046835978  0.7680298615141211  0.49310437108313215          1.0000   
         H         H         1.0       0.9117934829924558  0.8094859858087219  0.4925200592387081 1.0000   
         H         H         1.0       0.880463366661082   0.7727005039143676  0.5421428093653415 1.0000   
         H         H         1.0       0.8617723780001559  0.7511451521684378  0.5092820436393115 1.0000   
         C         C         1.0       0.765980995609016   0.7937247609419836  0.2303822465008683 1.0000   
         C         C         1.0       0.7845333183596946  0.8173120048212427  0.25433915443605143          1.0000   
         H         H         1.0       0.7465941385442373  0.77669943228032    0.2442007299000721 1.0000   
         H         H         1.0       0.7846477008660684  0.7771670596156683  0.2186187850497947 1.0000   
         H         H         1.0       0.7649563511120194  0.8317259825229043  0.2704867752372375 1.0000   
         H         H         1.0       0.7943729091135532  0.8378451830159376  0.23911872405906953          1.0000   
         C         C         1.0       0.6831120896161509  0.7929478123132598  0.8750647770645731 1.0000   
         C         C         1.0       0.6899916441766262  0.7712552840200113  0.8430463270192796 1.0000   
         H         H         1.0       0.6664362136935146  0.7778792762405817  0.8933143198000432 1.0000   
         H         H         1.0       0.6695396278023215  0.8169427883338588  0.8671967018368957 1.0000   
         H         H         1.0       0.7106614766385486  0.7867891236166236  0.8285419040421188 1.0000   
         H         H         1.0       0.7056662673529746  0.7491563586963655  0.8518208785741638 1.0000   
         C         C         1.0       0.3320746544362937  0.7057816399408636  0.9279568666591089 1.0000   
         C         C         1.0       0.367727264985107   0.7016291023569003  0.9105812436864917 1.0000   
         H         H         1.0       0.3195127762968998  0.7289812633635903  0.9166035702421343 1.0000   
         H         H         1.0       0.33721902397512676           0.7126697486458696 0.9559431221248258 1.0000   
         H         H         1.0       0.3849037257649593  0.6933930947879393  0.9316386305165418 1.0000   
         H         H         1.0       0.36802526093113813           0.6785028361603397 0.8914241844405376 1.0000   
         C         C         1.0       0.5803501977157863  0.5914693402834246  0.7716824565311909 1.0000   
         C         C         1.0       0.6095388963353614  0.5830932653099709  0.7961516677541493 1.0000   
         H         H         1.0       0.5903895181370877  0.584726384345232   0.7447446990946659 1.0000   
         H         H         1.0       0.5573384240604506  0.5753434272135527  0.7699840033499175 1.0000   
         H         H         1.0       0.6025565882038106  0.5944013735368399  0.8214026189734431 1.0000   
         H         H         1.0       0.6112577143327342  0.5558275304921914  0.8014904096844547 1.0000   
         C         C         1.0       0.5355418964541431  0.7884267520145769  0.6149495253275828 1.0000   
         C         C         1.0       0.5182946337441586  0.8080132382637385  0.6445650908028613 1.0000   
         H         H         1.0       0.5262741221011372  0.7976854126412678  0.589534833957338  1.0000   
         H         H         1.0       0.5258397465173388  0.7608257862048456  0.6172642255268387 1.0000   
         H         H         1.0       0.49034553195084074           0.8064150891559889 0.6443625956271941 1.0000   
         H         H         1.0       0.5251715408457025  0.8346943423007306  0.6460630808970209 1.0000   
         C         C         1.0       0.27865067809059485           0.24196516022511705          0.9433321269371994 1.0000   
         C         C         1.0       0.23808679834964197           0.24550698884979527          0.9402142611745042 1.0000   
         H         H         1.0       0.28544194682974505           0.25792088835957894          0.9650092695585624 1.0000   
         H         H         1.0       0.2921682015466283  0.2532340228402761  0.9203855223670668 1.0000   
         H         H         1.0       0.2325414459721445  0.27079059982228615           0.9525854643081596 1.0000   
         H         H         1.0       0.22438091866234583           0.22845197463466868          0.9589925552472044 1.0000   
         C         C         1.0       0.34405090068505445           0.1218726940425586 0.11152660201758978          1.0000   
         C         C         1.0       0.32557050220340183           0.15191663511903913          0.1266741453497618 1.0000   
         H         H         1.0       0.33141155957616064           0.09779012710096996          0.11913985946301837          1.0000   
         H         H         1.0       0.36881671803110705           0.12033908433826276          0.12276519042351165          1.0000   
         H         H         1.0       0.32519657078908193           0.1489083260103508 0.1545010374756263 1.0000   
         H         H         1.0       0.2987109455562101  0.1513569191884653  0.12320513896021856          1.0000   
         C         C         1.0       0.5066487709971466  0.0939012690732703  0.9049023553915797 1.0000   
         C         C         1.0       0.47634432977358854           0.07843118896809734          0.8848521707016851 1.0000   
         H         H         1.0       0.5283702707321188  0.08367760824750917           0.8906466273233629 1.0000   
         H         H         1.0       0.5068555673818478  0.08355107353475931           0.9309122040221637 1.0000   
         H         H         1.0       0.4803406315729167  0.04986706750645431           0.8800627090046026 1.0000   
         H         H         1.0       0.4749351973038828  0.09235989751314698           0.8593135042396527 1.0000   
         C         C         1.0       0.4333427393376945  0.9709685783414248  0.893260288462731  1.0000   
         C         C         1.0       0.4549097376364456  0.9423532585046374  0.9095829507173171 1.0000   
         H         H         1.0       0.4439966346391093  0.9737645394700293  0.8675734308620606 1.0000   
         H         H         1.0       0.4396476907768844  0.995313414741697   0.9045737894344333 1.0000   
         H         H         1.0       0.48203603338422846           0.9503365529691008 0.9086052959433202 1.0000   
         H         H         1.0       0.44937814237032625           0.9414905052923057 0.9379168555486589 1.0000   
         C         C         1.0       0.18555069559098    0.844604424270327   0.9355569049735909 1.0000   
         C         C         1.0       0.22097159315596235           0.8586950391993209 0.9461380877623053 1.0000   
         H         H         1.0       0.18490695333507312           0.8335140198546004 0.9079615435898659 1.0000   
         H         H         1.0       0.16617344428482092           0.8659166112871379 0.9353950550440137 1.0000   
         H         H         1.0       0.242067182419304   0.8411282764432678  0.944333878693304  1.0000   
         H         H         1.0       0.22061177358490816           0.863239252517615  0.9760028332026753 1.0000   
         C         C         1.0       0.2663420213668196  0.7691226756691486  0.49227855427997924          1.0000   
         C         C         1.0       0.23673072667903136           0.7611235702323695 0.46871274358129666          1.0000   
         H         H         1.0       0.28701722998333945           0.7798232555675418 0.4776373999205067 1.0000   
         H         H         1.0       0.27621052949601166           0.7447434864946387 0.5053603626766425 1.0000   
         H         H         1.0       0.22667513739537165           0.7873942946600441 0.4610610088043642 1.0000   
         H         H         1.0       0.21738556601208633           0.7497874686576886 0.4856064093274035 1.0000   
         C         C         1.0       0.25342893559492613           0.03369623706510172          0.6212712256107026 1.0000   
         C         C         1.0       0.2675309768902065  0.00021498116049234461       0.6346365000377557 1.0000   
         H         H         1.0       0.2650564856238383  0.053370300827682016         0.6389960769646506 1.0000   
         H         H         1.0       0.2245843357395797  0.03293577500307232           0.624072404234718  1.0000   
         H         H         1.0       0.26670330809844495           0.9969514668100802 0.6624885804502901 1.0000   
         H         H         1.0       0.2932825535908325  0.0006685116800528856        0.6300266192570372 1.0000   
         C         C         1.0       0.08899020204489687           0.8482061301458245 0.5073703125016635 1.0000   
         C         C         1.0       0.10031591856525011           0.8432931280680535 0.46825547924563743          1.0000   
         H         H         1.0       0.07331026278595042           0.8245591766156184 0.5136835309841864 1.0000   
         H         H         1.0       0.06887660238153413           0.8681427386335571 0.5109997235266979 1.0000   
         H         H         1.0       0.12457170099934406           0.8310668135976388 0.46453301393334256          1.0000   
         H         H         1.0       0.08346274637544247           0.8228154588668909 0.46048172750828886          1.0000   
         C         C         1.0       0.15445248029461184           0.007421108655123021         0.7799485700150725 1.0000   
         C         C         1.0       0.18862597138349704           0.028676440385825952         0.7848656591961897 1.0000   
         H         H         1.0       0.1356795555384629  0.017424987824928406         0.7616795075205052 1.0000   
         H         H         1.0       0.14218455374699773           0.007754799716511718         0.8050320933816738 1.0000   
         H         H         1.0       0.1825199899988602  0.055712974522726944         0.7933233815640777 1.0000   
         H         H         1.0       0.19916291614248782           0.03411893538239186          0.7590778412182276 1.0000   
         C         C         1.0       0.37657888890312    0.8977636966478069  0.7284747697350471 1.0000   
         C         C         1.0       0.36444490592623907           0.9300079056822983 0.745437611776038  1.0000   
         H         H         1.0       0.39659134404755847           0.9017153386959471 0.7084786447935825 1.0000   
         H         H         1.0       0.35448541165609226           0.8849344985193769 0.7111612727896165 1.0000   
         H         H         1.0       0.3728870658442296  0.9505492383442811  0.7290978348384226 1.0000   
         H         H         1.0       0.3776514086861983  0.9342257482969968  0.770291189936294  1.0000   
         C         C         1.0       0.19574130422329647           0.7597380497997057 0.8621086768598143 1.0000   
         C         C         1.0       0.2217944154486806  0.7642633006800482  0.8318773837185571 1.0000   
         H         H         1.0       0.19147118498123067           0.7843226016896905 0.8745898034225108 1.0000   
         H         H         1.0       0.21146528780573942           0.7458740103095025 0.8813198212519053 1.0000   
         H         H         1.0       0.2475146887178378  0.7666760982159633  0.8459672144880456 1.0000   
         H         H         1.0       0.22141482228603726           0.7419576482278877 0.8151198038391    1.0000

