data_0
_chemical_formula_structural 
                                        C6H4C38H24C6H4C38H24C6H4C38H24C6H4C38H24C6H4C38H24C6H4C38H24C6H4C38H24C6H4C38H24C6H4C38H24C6H4C38H24C6H4C38H24C6H4C38H24C2H4C2H4C2H4C2H4C2H4C2H4C2H4C2H4C2H4C2H4C2H4C2H4C2H4C2H4C2H4C2H4C2H4C2H4C2H4C2H4C2H4C2H4C2H4C2H4C2H4C2H4C2H4C2H4C2H4C2H4C2H4C2H4C2H4C2H4C2H4C2H4
_chemical_formula_sum                   'C600 H480'
_cell_length_a                          29.78505617044125
_cell_length_b                          33.653296722595584
_cell_length_c                          23.17157068607446
_cell_angle_alpha                       80.41512171156205
_cell_angle_beta                        93.0958372729982
_cell_angle_gamma                       128.07554346374312
_space_group_name_H-M_alt               'P 1'
_space_group_IT_number                  1
loop_
  _space_group_symop_operation_xyz
         'x, y, z' 
loop_
  _atom_site_type_symbol
  _atom_site_label
  _atom_site_symmetry_multiplicity
  _atom_site_fract_x
  _atom_site_fract_y
  _atom_site_fract_z
  _atom_site_occupancy
         C         C         1.0       0.8202368215292759  0.5323574097956494  0.9101602445007677 1.0000   
         C         C         1.0       0.7677283387303675  0.5130060640981906  0.8885611929798174 1.0000   
         C         C         1.0       0.7194920483215514  0.4676796628002393  0.9155177383496593 1.0000   
         C         C         1.0       0.7220038838906051  0.44063248125510196           0.9664101757251826 1.0000   
         C         C         1.0       0.7753032047173692  0.4628860834134933  0.993214112412316  1.0000   
         C         C         1.0       0.8228521158728396  0.5103490023897026  0.9642460385523591 1.0000   
         H         H         1.0       0.768977159715479   0.5331638642346324  0.8473662561400395 1.0000   
         H         H         1.0       0.6790827393115813  0.4558657016807587  0.8968596355401618 1.0000   
         H         H         1.0       0.7852713779294894  0.4462696453528326  0.030715760719248975         1.0000   
         H         H         1.0       0.8667348566587891  0.5249915896051318  0.9786731146458449 1.0000   
         C         C         1.0       0.698053305426336   0.33488701718415764           0.9849685629002741 1.0000   
         C         C         1.0       0.6657547772408947  0.34102803840376245           0.021345132699919667         1.0000   
         C         C         1.0       0.6322071683456993  0.3047965240926787  0.06553980295854589          1.0000   
         C         C         1.0       0.632463570649676   0.2635644087737807  0.08421790119915706          1.0000   
         C         C         1.0       0.6659321634230428  0.2581445320002259  0.05311364826560139          1.0000   
         C         C         1.0       0.699494912825899   0.2938291047317368  0.003272603118710915         1.0000   
         C         C         1.0       0.6657612074058904  0.3909655065169594  0.006185138392229561         1.0000   
         C         C         1.0       0.604461846693756   0.3676572054692999  0.9769806343067812 1.0000   
         C         C         1.0       0.5590389031208458  0.36397658286297735           0.0012601190659022876        1.0000   
         C         C         1.0       0.5179269575038868  0.3575387090918202  0.9669118485463211 1.0000   
         C         C         1.0       0.5165782875159727  0.35161266208006525           0.9099764579253037 1.0000   
         C         C         1.0       0.5554364653593816  0.34848611342471514           0.8877809984326961 1.0000   
         C         C         1.0       0.599324636062277   0.3551769283773323  0.9215580461033425 1.0000   
         C         C         1.0       0.6911900063781689  0.4075764835748487  0.11303964446613146          1.0000   
         C         C         1.0       0.7014535183964214  0.43257063767337284           0.1584592378120197 1.0000   
         C         C         1.0       0.6921900345272722  0.46858487856798403           0.15414076549103273          1.0000   
         C         C         1.0       0.6786089760475664  0.48121250642941954           0.10111085429368138          1.0000   
         C         C         1.0       0.6704555758949498  0.4587047008331138  0.05441427579314362          1.0000   
         C         C         1.0       0.6722357287033489  0.4173746631573216  0.06001397480176851          1.0000   
         C         C         1.0       0.699986148015335   0.4972279314240528  0.20652516048799424          1.0000   
         C         C         1.0       0.5441722121501056  0.3721297095303677  0.3173357581119367 1.0000   
         C         C         1.0       0.595174157486688   0.38530385838823517           0.33383451583562496          1.0000   
         C         C         1.0       0.6448365938745863  0.4205921629442107  0.29740468978969253          1.0000   
         C         C         1.0       0.644473512607982   0.44851213262557815           0.24541264682310893          1.0000   
         C         C         1.0       0.592182319204814   0.43387427453859656           0.22779721764055227          1.0000   
         C         C         1.0       0.5424212264690755  0.39199819751412524           0.2607469719615454 1.0000   
         C         C         1.0       0.7055385616549643  0.5462659319996299  0.18711820490651365          1.0000   
         C         C         1.0       0.7507079142180282  0.5864088973711522  0.15003497292030699          1.0000   
         C         C         1.0       0.7613231578201489  0.6322908115800863  0.13942234889201743          1.0000   
         C         C         1.0       0.7280868260674499  0.6408555987072334  0.16609570904152843          1.0000   
         C         C         1.0       0.6831983506473658  0.6001210019839698  0.20324161321876413          1.0000   
         C         C         1.0       0.671392151412407   0.5541935649961934  0.21181161133299842          1.0000   
         C         C         1.0       0.76083989724615    0.5320844453984256  0.29510780902160805          1.0000   
         C         C         1.0       0.807571757212693   0.5478255270660218  0.3287155541630947 1.0000   
         C         C         1.0       0.8507289094401266  0.5488745506988585  0.31022372575937596          1.0000   
         C         C         1.0       0.8491897983740164  0.5376164940608708  0.2553343148886405 1.0000   
         C         C         1.0       0.805744696430504   0.5263043647735235  0.2209030993135462 1.0000   
         C         C         1.0       0.7570521942288737  0.5182720309377148  0.24135621788449058          1.0000   
         H         H         1.0       0.7264446799848004  0.3660768469017088  0.947729223712071  1.0000   
         H         H         1.0       0.6056129133550511  0.30767827430140565           0.08969219553849328          1.0000   
         H         H         1.0       0.6013846323879147  0.23425272132332536           0.11987826881061325          1.0000   
         H         H         1.0       0.7259199434343747  0.29449285966130956           0.9730435084329435 1.0000   
         H         H         1.0       0.5622379705442002  0.3745174713932279  0.04508730025376573          1.0000   
         H         H         1.0       0.48359455353016145           0.35591028208470676          0.9861722595329674 1.0000   
         H         H         1.0       0.5563727345857712  0.3477643227742335  0.8410090328738381 1.0000   
         H         H         1.0       0.6288001278958661  0.35239201852743407           0.9030199409981439 1.0000   
         H         H         1.0       0.6974736207696854  0.37933405867428105           0.1222127089529621 1.0000   
         H         H         1.0       0.7095757919827486  0.4199455915133704  0.1988907225622175 1.0000   
         H         H         1.0       0.6738322688804171  0.5118080600333532  0.09329686039166218          1.0000   
         H         H         1.0       0.6635973136044554  0.4708521328672666  0.01010660503880656          1.0000   
         H         H         1.0       0.5963533474993042  0.3696241019792433  0.3774098397564444 1.0000   
         H         H         1.0       0.6848509655642087  0.4298787085154919  0.3174190854985268 1.0000   
         H         H         1.0       0.5873690121783652  0.4533905223610599  0.18968001752774444          1.0000   
         H         H         1.0       0.5050108283776961  0.38777654244532    0.25061867546210803          1.0000   
         H         H         1.0       0.7763164341532838  0.5800640161346249  0.126898177126457  1.0000   
         H         H         1.0       0.7983365727965527  0.6651067623564003  0.11030541872325417          1.0000   
         H         H         1.0       0.653597030016389   0.600956741438379   0.22782399658474303          1.0000   
         H         H         1.0       0.640453366645022   0.528877163456697   0.24810144327192066          1.0000   
         H         H         1.0       0.7255663715875952  0.5286827425399648  0.3125093951156109 1.0000   
         H         H         1.0       0.8055552109324102  0.5492784717850345  0.3740719942972429 1.0000   
         H         H         1.0       0.8852757339691931  0.5418889658141294  0.23886432962669027          1.0000   
         H         H         1.0       0.8007506708115806  0.5118563045685955  0.18186832909643807          1.0000   
         C         C         1.0       0.6949974052603812  0.36461060502881754           0.740916384605324  1.0000   
         C         C         1.0       0.7246882760890418  0.41208722093759476           0.7042211647918112 1.0000   
         C         C         1.0       0.7232657267303068  0.4173127373725663  0.6444156454055672 1.0000   
         C         C         1.0       0.6880316469886423  0.37498466955372395           0.6187581264156348 1.0000   
         C         C         1.0       0.6560795695224985  0.3272083492124784  0.6553038543142569 1.0000   
         C         C         1.0       0.6610665587761257  0.32263370797846724           0.7141702873952281 1.0000   
         H         H         1.0       0.7564492633076988  0.4467058828948869  0.7186898928486525 1.0000   
         H         H         1.0       0.747617649573538   0.45465450628627757           0.6168956328337205 1.0000   
         H         H         1.0       0.6190599258272514  0.290266749783481   0.6421737787365213 1.0000   
         H         H         1.0       0.6370236389548821  0.28682412399925866           0.7435624741066863 1.0000   
         C         C         1.0       0.6585048904974142  0.3002683082325847  0.53058508096177   1.0000   
         C         C         1.0       0.6407839385679079  0.33005615576727776           0.5282823164530844 1.0000   
         C         C         1.0       0.5902367848849709  0.31225864403305176           0.5020238619302865 1.0000   
         C         C         1.0       0.5548170033036366  0.26460698064253424           0.49107038123226254          1.0000   
         C         C         1.0       0.5688654220185656  0.23265927323715332           0.5049176296607936 1.0000   
         C         C         1.0       0.6218393508763442  0.25093268959099024           0.5212052740761027 1.0000   
         C         C         1.0       0.6792350357507364  0.3841782402154167  0.5531431481405328 1.0000   
         C         C         1.0       0.7372668444897637  0.41865779426163646           0.5115889020752433 1.0000   
         C         C         1.0       0.727786104419679   0.42136346309853134           0.453889979465646  1.0000   
         C         C         1.0       0.7712200017968185  0.44225555037949815           0.41162498249339924          1.0000   
         C         C         1.0       0.8271717024685526  0.4670618955705507  0.42625218924810876          1.0000   
         C         C         1.0       0.8370417605478522  0.46272909722408095           0.48424506135484396          1.0000   
         C         C         1.0       0.7943463955330368  0.44221089822839127           0.5257272702526405 1.0000   
         C         C         1.0       0.593970759513909   0.37951404063111815           0.5881652890399333 1.0000   
         C         C         1.0       0.5699903848969717  0.4015272269427479  0.6012725660437578 1.0000   
         C         C         1.0       0.5933178254574255  0.4514225695614038  0.5754106552750218 1.0000   
         C         C         1.0       0.637691226751768   0.4758895180524278  0.5321097864310347 1.0000   
         C         C         1.0       0.6653744704931447  0.45630542765621884           0.5258291898483477 1.0000   
         C         C         1.0       0.6433751743729333  0.40577187216489863           0.5533177543234586 1.0000   
         C         C         1.0       0.5726088385392845  0.4818746257152417  0.5957235255163276 1.0000   
         C         C         1.0       0.43439655782420783           0.4332865806294263 0.4753224615430954 1.0000   
         C         C         1.0       0.4263528456618131  0.4031307317697775  0.5255808124666846 1.0000   
         C         C         1.0       0.4687040168374635  0.4177546252829748  0.563624960920266  1.0000   
         C         C         1.0       0.5236279143736889  0.46432265845536663           0.5512789044024593 1.0000   
         C         C         1.0       0.531030392191997   0.49372831161318764           0.49873908201131767          1.0000   
         C         C         1.0       0.48967007181868316           0.4778009927347755 0.4589198747495664 1.0000   
         C         C         1.0       0.6178125607816021  0.5396728670080517  0.5966809792641766 1.0000   
         C         C         1.0       0.6746338390403865  0.5594041031886686  0.6093221976363224 1.0000   
         C         C         1.0       0.7144283415255385  0.6097306542516887  0.6127424932625712 1.0000   
         C         C         1.0       0.6992132332267154  0.6419983478907985  0.6093398946822219 1.0000   
         C         C         1.0       0.6455844457392023  0.6225443206419787  0.5956578908196609 1.0000   
         C         C         1.0       0.6060242404961355  0.5730750568526264  0.588667845031044  1.0000   
         C         C         1.0       0.5050525951848901  0.4572713442686954  0.6848334390834714 1.0000   
         C         C         1.0       0.4866023955860048  0.4371094061399977  0.7433954880877435 1.0000   
         C         C         1.0       0.5169616948578135  0.42826426145119695           0.7831483706809907 1.0000   
         C         C         1.0       0.5644932125732649  0.43762575203957316           0.7622184575493409 1.0000   
         C         C         1.0       0.5828737737292624  0.4563736078892874  0.7041003350591365 1.0000   
         C         C         1.0       0.5526138192014388  0.4650031082598675  0.6628191884264419 1.0000   
         H         H         1.0       0.6995905243344177  0.3141092605796363  0.5491604546065026 1.0000   
         H         H         1.0       0.5708138184990902  0.33102560210364257           0.4936949127802639 1.0000   
         H         H         1.0       0.5120629378165313  0.25342817403187184           0.47509284479159286          1.0000   
         H         H         1.0       0.6328049355032718  0.22396973978137577           0.5288688788156293 1.0000   
         H         H         1.0       0.6847535045415191  0.40767892397064576           0.4373737220692864 1.0000   
         H         H         1.0       0.762502137253584   0.44278457357721623           0.36632586379542664          1.0000   
         H         H         1.0       0.8792626679879246  0.4798635116993861  0.49940174482631494          1.0000   
         H         H         1.0       0.8013695169083768  0.43987508663884906           0.5722691507322563 1.0000   
         H         H         1.0       0.572258956066286   0.33972647917043564           0.6089963905577735 1.0000   
         H         H         1.0       0.5303660562989672  0.37882233622515593           0.6287654566511649 1.0000   
         H         H         1.0       0.6560109013214714  0.5114359287122122  0.501507045275291  1.0000   
         H         H         1.0       0.7035746703821175  0.48065942936655864           0.49813353827190426          1.0000   
         H         H         1.0       0.38440964179496795           0.3673919351397593 0.5361901768579225 1.0000   
         H         H         1.0       0.45918157447467695           0.39086412721659014          0.6036543525336244 1.0000   
         H         H         1.0       0.5731975053369898  0.5256745317212175  0.4829699754675261 1.0000   
         H         H         1.0       0.5008383025890556  0.4992667286981752  0.41512823833286744          1.0000   
         H         H         1.0       0.6890545028757828  0.5348387247352664  0.6158237307439182 1.0000   
         H         H         1.0       0.7577518879406139  0.6247396815217033  0.6186834524778738 1.0000   
         H         H         1.0       0.6325386638670019  0.6475332658277225  0.5929241230393253 1.0000   
         H         H         1.0       0.5600403966395758  0.5522046956638061  0.5909155579531639 1.0000   
         H         H         1.0       0.4790795982274274  0.46885590312143544           0.6579711247518584 1.0000   
         H         H         1.0       0.44844219302521227           0.43244054178315017          0.7571555167783858 1.0000   
         H         H         1.0       0.5837838603017351  0.4265725027338681  0.7924951329628757 1.0000   
         H         H         1.0       0.6198231466018158  0.4610539250709583  0.6876858286790054 1.0000   
         C         C         1.0       0.6156457066766077  0.8974370084176889  0.022483095036144984         1.0000   
         C         C         1.0       0.5812868429388172  0.8759035188292563  0.0720397469789884 1.0000   
         C         C         1.0       0.5599043436336124  0.8980913333488031  0.09320237166038493          1.0000   
         C         C         1.0       0.5717189958653408  0.9414974498266815  0.06075240075138977          1.0000   
         C         C         1.0       0.6060769279872837  0.963142028814357   0.009320166674752661         1.0000   
         C         C         1.0       0.6294565244097917  0.9425416299763169  0.9917129149814797 1.0000   
         H         H         1.0       0.5713443717762938  0.8397435465145919  0.09758283859993044          1.0000   
         H         H         1.0       0.5346336007166809  0.8731953027599605  0.1345901591431562 1.0000   
         H         H         1.0       0.6220388084756414  0.9987819719693173  0.9834096399355043 1.0000   
         H         H         1.0       0.6635094844145536  0.9669156974982246  0.9582659990914724 1.0000   
         C         C         1.0       0.6411420222463384  0.05781990942199755           0.06927989721561056          1.0000   
         C         C         1.0       0.5820401956821765  0.025513568290448818         0.07432509605878002          1.0000   
         C         C         1.0       0.5533488469314545  0.04616030618460387           0.07326167107592041          1.0000   
         C         C         1.0       0.5837611103019927  0.09842054324241056           0.06665107876564869          1.0000   
         C         C         1.0       0.6427836770969833  0.13181643582156144           0.05504264030583417          1.0000   
         C         C         1.0       0.6718076637380006  0.11238141819091396           0.05624194843207131          1.0000   
         C         C         1.0       0.5468291190561458  0.9655206990795353  0.08778140162536463          1.0000   
         C         C         1.0       0.5488742122401304  0.965600202641475   0.1556772330342464 1.0000   
         C         C         1.0       0.506355713400384   0.9567744142311171  0.19186865519219867          1.0000   
         C         C         1.0       0.5036294762063694  0.9473278650245299  0.25317981531074313          1.0000   
         C         C         1.0       0.5455882490778002  0.9453452250677224  0.2791585302955784 1.0000   
         C         C         1.0       0.5839066873741803  0.9484003960674201  0.24470255703759328          1.0000   
         C         C         1.0       0.5899665670003723  0.9654668952400448  0.1851612973251552 1.0000   
         C         C         1.0       0.46956730350718223           0.9478105096528155 0.011678449083897258         1.0000   
         C         C         1.0       0.4117791378446948  0.9237742773672506  0.002828206896883456         1.0000   
         C         C         1.0       0.37076048402756195           0.8778904052466306 0.03354763051417131          1.0000   
         C         C         1.0       0.39089076633423725           0.8593276961710307 0.08115292708239119          1.0000   
         C         C         1.0       0.44650082891241116           0.8859920566082358 0.09671726551857175          1.0000   
         C         C         1.0       0.48507786414388515           0.9320727335065632 0.06446233467529372          1.0000   
         C         C         1.0       0.3049835895810673  0.8569604763306943  0.040899100507398645         1.0000   
         C         C         1.0       0.34667268961313313           0.9543436488417794 0.17051989133235557          1.0000   
         C         C         1.0       0.3480122095224418  0.9702606858795556  0.11204034771427929          1.0000   
         C         C         1.0       0.33450870044124353           0.9387661438752651 0.07406689235232355          1.0000   
         C         C         1.0       0.31496125993728835           0.889400814569032  0.09025090605675068          1.0000   
         C         C         1.0       0.30700393975327656           0.8711778277399048 0.14983499616805074          1.0000   
         C         C         1.0       0.3239979576812986  0.9049162935430739  0.1896209568624987 1.0000   
         C         C         1.0       0.263655129859231   0.7965842850280395  0.0490501176464988 1.0000   
         C         C         1.0       0.2735386448183544  0.7692071650102738  0.021165500392009706         1.0000   
         C         C         1.0       0.2389916060177063  0.7176676981496659  0.03328337631848566          1.0000   
         C         C         1.0       0.19661186344281753           0.6908000750521694 0.07698571715459535          1.0000   
         C         C         1.0       0.18311596460874802           0.7172779321042725 0.10406366588243232          1.0000   
         C         C         1.0       0.21912942056231036           0.7703118984403662 0.09279663168448482          1.0000   
         C         C         1.0       0.23519532475143315           0.8757811783875213 0.9904347593634417 1.0000   
         C         C         1.0       0.2004828019460122  0.8693466109267172  0.947392343354819  1.0000   
         C         C         1.0       0.20560281082848333           0.8582204299091101 0.894930306572303  1.0000   
         C         C         1.0       0.2496369146194747  0.8536653788392247  0.8869616518487499 1.0000   
         C         C         1.0       0.28297010932672484           0.8571901465391147 0.9321333531162806 1.0000   
         C         C         1.0       0.2733066058100135  0.8647211043545532  0.9868046936636901 1.0000   
         H         H         1.0       0.6618378837190972  0.040160299560151325         0.07690030986766883          1.0000   
         H         H         1.0       0.50655050968787    0.017686393797477384         0.0801835287499797 1.0000   
         H         H         1.0       0.5575455182381278  0.11047282115998724           0.06564287590985773          1.0000   
         H         H         1.0       0.7186739126368323  0.1368277401982858  0.049129488721602284         1.0000   
         H         H         1.0       0.4751330498249814  0.9545625683674889  0.16887610289075483          1.0000   
         H         H         1.0       0.4761818460109525  0.9490991861489142  0.2758626594393719 1.0000   
         H         H         1.0       0.6183918690147986  0.9471917439542625  0.264033772751403  1.0000   
         H         H         1.0       0.6243164380508075  0.968402711817232   0.1625668021736415 1.0000   
         H         H         1.0       0.5008995853885471  0.9847383110414029  0.9846746700757121 1.0000   
         H         H         1.0       0.39779864714100666           0.937330922672034  0.966754373112132  1.0000   
         H         H         1.0       0.36020686267013796           0.8210123354399693 0.10195247643439642          1.0000   
         H         H         1.0       0.4617700038651017  0.8752833343454093  0.1332263433108816 1.0000   
         H         H         1.0       0.3628841323650341  0.007908528850596896         0.09442264322441485          1.0000   
         H         H         1.0       0.33443370353670165           0.9537914218023053 0.028457234496321204         1.0000   
         H         H         1.0       0.29810173847266186           0.8361149537317847 0.16479031209684503          1.0000   
         H         H         1.0       0.3176791139762863  0.8906265140856116  0.23616028824499985          1.0000   
         H         H         1.0       0.3135844076357705  0.791045207511777   0.9941710368586425 1.0000   
         H         H         1.0       0.2511324727931653  0.6985413762086738  0.010994335978434133         1.0000   
         H         H         1.0       0.1475556362978214  0.696925660669801   0.13634018180749718          1.0000   
         H         H         1.0       0.20603159117300013           0.7886097111640505 0.11282647670997914          1.0000   
         H         H         1.0       0.22690205314772754           0.8798745141523454 0.03528451364837881          1.0000   
         H         H         1.0       0.16744906711060759           0.8718487512238395 0.9523105735030228 1.0000   
         H         H         1.0       0.2566146451121319  0.8466527864047344  0.8459984503995444 1.0000   
         H         H         1.0       0.3141778116500169  0.8512389653216502  0.930478285467761  1.0000   
         C         C         1.0       0.48074030345351737           0.9093446326512311 0.8180004091583787 1.0000   
         C         C         1.0       0.4238450969942162  0.8855376610235371  0.8284171570741997 1.0000   
         C         C         1.0       0.39954593883291045           0.9021132820644409 0.7924251727586553 1.0000   
         C         C         1.0       0.42788226179983113           0.9391160071455105 0.7413759185163654 1.0000   
         C         C         1.0       0.48367732746589703           0.9585511178745254 0.7295181157444207 1.0000   
         C         C         1.0       0.5100671565377402  0.9441543162512184  0.7675013307032249 1.0000   
         H         H         1.0       0.40285468579790945           0.8575302761055842 0.8671985819014917 1.0000   
         H         H         1.0       0.3530762648180907  0.8844653254201443  0.805651991588703  1.0000   
         H         H         1.0       0.5084337072967084  0.9853261963009361  0.6895500181822282 1.0000   
         H         H         1.0       0.5553090996812337  0.9620945380023543  0.7611225051483588 1.0000   
         C         C         1.0       0.4734157148642707  0.05118665046280646           0.6787233037251122 1.0000   
         C         C         1.0       0.42771942685051806           0.009201636285014692         0.6568539872237423 1.0000   
         C         C         1.0       0.40133680808150995           0.016485159733690802         0.61189922338452   1.0000   
         C         C         1.0       0.42405925867122857           0.06439688747123462          0.5843382389067163 1.0000   
         C         C         1.0       0.46987422261582007           0.10643957950447036          0.6056674081524022 1.0000   
         C         C         1.0       0.49597426679792217           0.10059942385177068          0.6512842240886468 1.0000   
         C         C         1.0       0.3961101178292025  0.9516405436548949  0.6902587352367933 1.0000   
         C         C         1.0       0.3429211275289794  0.9429004822338022  0.7188077185782331 1.0000   
         C         C         1.0       0.29181164859196057           0.9154827416122078 0.6922201905284897 1.0000   
         C         C         1.0       0.24234618594017465           0.9054765767760122 0.7175261390870205 1.0000   
         C         C         1.0       0.246767092255615   0.9213295680960889  0.7698381510665429 1.0000   
         C         C         1.0       0.29918229869745677           0.954527519684365  0.7918736596765326 1.0000   
         C         C         1.0       0.34733119421066666           0.9659167898222448 0.7653638565159367 1.0000   
         C         C         1.0       0.4124741851369706  0.9270739249959912  0.5941211917737604 1.0000   
         C         C         1.0       0.39965908166993114           0.890787497147348  0.5600313969625065 1.0000   
         C         C         1.0       0.36792307613073405           0.8408426195497067 0.583612926928628  1.0000   
         C         C         1.0       0.33697433336374455           0.8242660553059229 0.637127699349399  1.0000   
         C         C         1.0       0.3427016928749756  0.8593938125863568  0.6671129286784194 1.0000   
         C         C         1.0       0.38193119849619406           0.911868174449037  0.6480393778133233 1.0000   
         C         C         1.0       0.3719033382775748  0.8034815238719365  0.5586988339688075 1.0000   
         C         C         1.0       0.20988034383186066           0.7285193414029393 0.47322637535402434          1.0000   
         C         C         1.0       0.26165226450728385           0.7696550298106336 0.441620459492942  1.0000   
         C         C         1.0       0.31214093211868665           0.7913710617668042 0.46746344047401517          1.0000   
         C         C         1.0       0.31348577546603895           0.7749833399423021 0.525707465508889  1.0000   
         C         C         1.0       0.2631017323564666  0.7340646987202508  0.5554792131633584 1.0000   
         C         C         1.0       0.21119806075825953           0.7119469205224569 0.5324154667313858 1.0000   
         C         C         1.0       0.3787652610066735  0.7690229590903671  0.60968605645807   1.0000   
         C         C         1.0       0.409332154599309   0.7887733869283456  0.6617006067846684 1.0000   
         C         C         1.0       0.41333003796319967           0.7584925390872507 0.7046334449439116 1.0000   
         C         C         1.0       0.3890144525466816  0.7074471427537518  0.7012596303324519 1.0000   
         C         C         1.0       0.3602302953580779  0.6880255894604292  0.6510554207068535 1.0000   
         C         C         1.0       0.35567075337339366           0.7181332768720453 0.6061831178027337 1.0000   
         C         C         1.0       0.42427704807689864           0.797971207496695  0.4788699895394842 1.0000   
         C         C         1.0       0.46742472501061744           0.820078076656426  0.43564257080939045          1.0000   
         C         C         1.0       0.5172771695978937  0.869386235003582   0.4368263911083314 1.0000   
         C         C         1.0       0.5248680190500585  0.8949603303650099  0.48105095358460304          1.0000   
         C         C         1.0       0.4827332725103941  0.8723961144359551  0.5241075024109593 1.0000   
         C         C         1.0       0.4287363627155899  0.8267792133444017  0.5184926334716817 1.0000   
         H         H         1.0       0.49099295711096985           0.04890191560111079          0.7181791171570817 1.0000   
         H         H         1.0       0.36528304988895066           0.9870533454017585 0.5955163713380885 1.0000   
         H         H         1.0       0.41013831612371204           0.077868485728678  0.5452658418379883 1.0000   
         H         H         1.0       0.5326592110205471  0.13439546668240232           0.6712044484285756 1.0000   
         H         H         1.0       0.28338946827943196           0.9007915384113595 0.652778603167893  1.0000   
         H         H         1.0       0.20425542662889098           0.8825431279385944 0.6947904773899045 1.0000   
         H         H         1.0       0.29937881942498784           0.9610683247267907 0.8358558986190154 1.0000   
         H         H         1.0       0.3893549145148344  0.9905714329665278  0.7818849758631634 1.0000   
         H         H         1.0       0.4450596476939412  0.9643712540871028  0.5794893432418717 1.0000   
         H         H         1.0       0.4228749587172687  0.9071472058978783  0.5164105132373787 1.0000   
         H         H         1.0       0.3147713396876772  0.786936430387203   0.6618253778429505 1.0000   
         H         H         1.0       0.3206870851510156  0.8475740827678606  0.7094382053344995 1.0000   
         H         H         1.0       0.26219107374359135           0.785567868821201  0.3982345953126521 1.0000   
         H         H         1.0       0.34840599699565006           0.8253892197776725 0.4431359848397004 1.0000   
         H         H         1.0       0.2618716593467842  0.717138195143941   0.6017812781025407 1.0000   
         H         H         1.0       0.17018521153299462           0.6789809521174731 0.5550771853738616 1.0000   
         H         H         1.0       0.421314101478197   0.825382051347212   0.6728362519456605 1.0000   
         H         H         1.0       0.43306099913843754           0.773808241715243  0.7433815261452467 1.0000   
         H         H         1.0       0.3417659671492825  0.6490743790546604  0.643341701675601  1.0000   
         H         H         1.0       0.33901898217070575           0.7067700510595264 0.5666623522248055 1.0000   
         H         H         1.0       0.39005286056607413           0.7578627114757064 0.4811598972664663 1.0000   
         H         H         1.0       0.4670918118841681  0.8005287466401417  0.40150698569564347          1.0000   
         H         H         1.0       0.5645560920028513  0.9342603727951863  0.48500913715840244          1.0000   
         H         H         1.0       0.4906478883704775  0.8931094461752231  0.5581759292465159 1.0000   
         C         C         1.0       0.2683904056990545  0.9530970216421986  0.25109207326529526          1.0000   
         C         C         1.0       0.23398915765451522           0.9399288434972901 0.20474003292564968          1.0000   
         C         C         1.0       0.1840717075004974  0.8904992911253173  0.20621561698846902          1.0000   
         C         C         1.0       0.17042964228123858           0.8514265047469406 0.251519813223142  1.0000   
         C         C         1.0       0.20224107376684453           0.8661931543007432 0.2997709453148927 1.0000   
         C         C         1.0       0.2493775535395164  0.9172664991895916  0.2997015603947159 1.0000   
         H         H         1.0       0.24643669000781698           0.9672767288759683 0.16819819672951608          1.0000   
         H         H         1.0       0.15970606455803127           0.8870333207450387 0.1669692602787871 1.0000   
         H         H         1.0       0.19260006605223023           0.8366860873435233 0.3334955975706311 1.0000   
         H         H         1.0       0.2785276389702098  0.9273777130620684  0.33487354658809276          1.0000   
         C         C         1.0       0.18394627686729326           0.7719973794187172 0.2648263159576265 1.0000   
         C         C         1.0       0.12895327031505754           0.7558579538212562 0.25685483609917914          1.0000   
         C         C         1.0       0.09068882410451029           0.7060215129634664 0.24675274941652933          1.0000   
         C         C         1.0       0.10156867657561364           0.6717297613114945 0.25632954434153515          1.0000   
         C         C         1.0       0.15392452286630154           0.6869544645506601 0.2710116629621344 1.0000   
         C         C         1.0       0.1952407319028444  0.7378475777796379  0.27685492989477045          1.0000   
         C         C         1.0       0.11215739178351503           0.7933289135982675 0.25290896606973456          1.0000   
         C         C         1.0       0.07941874275015648           0.787203836823905  0.19220582957474508          1.0000   
         C         C         1.0       0.02338565243764701           0.7702982810305886 0.1874603347432131 1.0000   
         C         C         1.0       0.0027780170783384683         0.773518131150047  0.132771449657763  1.0000   
         C         C         1.0       0.035698333999779175          0.7864220156737232 0.08341550571892187          1.0000   
         C         C         1.0       0.08577121241089891           0.7918204449984452 0.08918995029492471          1.0000   
         C         C         1.0       0.10831159647525701           0.7973011119428352 0.1424648444319241 1.0000   
         C         C         1.0       0.025999570787671455          0.725881114641524  0.3323334920566707 1.0000   
         C         C         1.0       0.9757926185654563  0.7131756232572484  0.35672009255583914          1.0000   
         C         C         1.0       0.9744751034822692  0.7497781038818873  0.3723991366953328 1.0000   
         C         C         1.0       0.01897159193323783           0.7996183808676982 0.35315006902545837          1.0000   
         C         C         1.0       0.06297981790294371           0.8133304767221005 0.31726425793872526          1.0000   
         C         C         1.0       0.06709652933779542           0.7757697774513392 0.3060601906518893 1.0000   
         C         C         1.0       0.9184924341849119  0.7362875863768317  0.4036679005522216 1.0000   
         C         C         1.0       0.8372040554355805  0.736040306736916   0.24056765668992916          1.0000   
         C         C         1.0       0.8229129830951651  0.6912298764417016  0.271514363627795  1.0000   
         C         C         1.0       0.8489478910679209  0.6907870785145357  0.3251626338640786 1.0000   
         C         C         1.0       0.8854745501140807  0.7354601322476925  0.34708790187558575          1.0000   
         C         C         1.0       0.8955808823590157  0.7794832076470604  0.31719846649013994          1.0000   
         C         C         1.0       0.8766639720153078  0.7799793174262223  0.2618465451953132 1.0000   
         C         C         1.0       0.930016835369418   0.7769233953163923  0.4433318559459925 1.0000   
         C         C         1.0       0.9789047203643149  0.8040777463642325  0.4720118084996937 1.0000   
         C         C         1.0       0.9976696749009567  0.8456793978350066  0.49393336160119633          1.0000   
         C         C         1.0       0.9671315549933238  0.8637476666391604  0.4911853409771492 1.0000   
         C         C         1.0       0.91325602131214    0.8324662930971207  0.4700938171838304 1.0000   
         C         C         1.0       0.8928573395514092  0.788947720236637   0.4485768298220608 1.0000   
         C         C         1.0       0.830571924844451   0.6549107472998257  0.4635582776903753 1.0000   
         C         C         1.0       0.8022266770333042  0.6118167745420456  0.5068716346337412 1.0000   
         C         C         1.0       0.8339667342964491  0.5992427351713641  0.5378027144569559 1.0000   
         C         C         1.0       0.8910252712780466  0.628746618278627   0.525829382555589  1.0000   
         C         C         1.0       0.9190329314349737  0.6741905888165675  0.4852761734804701 1.0000   
         C         C         1.0       0.8886553630501022  0.6868279207549501  0.451130004441443  1.0000   
         H         H         1.0       0.2202302877344049  0.8081290386540425  0.27529863857792347          1.0000   
         H         H         1.0       0.046944563620068935          0.692693056675174  0.23249224751300207          1.0000   
         H         H         1.0       0.06603547703407298           0.6343713970134625 0.24870624227168986          1.0000   
         H         H         1.0       0.23793105841220874           0.7498936424240321 0.29122986175374344          1.0000   
         H         H         1.0       0.994462327728642   0.7557515422905895  0.22434685372714136          1.0000   
         H         H         1.0       0.9620999191706157  0.7649381546942039  0.12498724264289462          1.0000   
         H         H         1.0       0.11358943916240394           0.8001091311730458 0.052864112889722925         1.0000   
         H         H         1.0       0.15404099906993718           0.8122038734862995 0.14473121795435429          1.0000   
         H         H         1.0       0.025728343445188262          0.6956480767881028 0.32543717850595505          1.0000   
         H         H         1.0       0.93659058498659    0.6710424818201995  0.368348282932688  1.0000   
         H         H         1.0       0.015738468053614785          0.8302268388026397 0.3545482840060201 1.0000   
         H         H         1.0       0.08738394654751946           0.8510325883068653 0.29415066766884923          1.0000   
         H         H         1.0       0.7957435506464898  0.6580112570729094  0.24982948896553947          1.0000   
         H         H         1.0       0.8372788018821656  0.6544309768371921  0.3442442663633786 1.0000   
         H         H         1.0       0.9259758411813798  0.8171153932053459  0.3305616995596754 1.0000   
         H         H         1.0       0.8897592375991261  0.8154059112433593  0.2373071804422858 1.0000   
         H         H         1.0       0.0014674641700340718         0.7883572161688194 0.4704696963520934 1.0000   
         H         H         1.0       0.04087505765039712           0.8705250620136499 0.5052243966984167 1.0000   
         H         H         1.0       0.8838398253628899  0.8413400882813739  0.468995044951324  1.0000   
         H         H         1.0       0.8530693537647271  0.7673045558309454  0.43055943533191804          1.0000   
         H         H         1.0       0.8053162460167309  0.6638415226638885  0.44379792546880215          1.0000   
         H         H         1.0       0.755948895620192   0.589911821678047   0.5142231044425739 1.0000   
         H         H         1.0       0.9151385641939602  0.6175839083023859  0.5435518673308359 1.0000   
         H         H         1.0       0.9618490047562515  0.691332588655364   0.477737222498807  1.0000   
         C         C         1.0       0.10925123612100585           0.7363946534374615 0.4921835703450276 1.0000   
         C         C         1.0       0.06689744467011804           0.689811149307931  0.5251976341844521 1.0000   
         C         C         1.0       0.04413581277450196           0.6873155279386013 0.5757406864389373 1.0000   
         C         C         1.0       0.05926466002297426           0.7287930893644677 0.5977140808057675 1.0000   
         C         C         1.0       0.10304499818570179           0.7757202739150041 0.5632098324083009 1.0000   
         C         C         1.0       0.12749814484054323           0.7821496430555586 0.5119734995076041 1.0000   
         H         H         1.0       0.04722326870940141           0.6551863333293835 0.5121785838018472 1.0000   
         H         H         1.0       0.016335671545060437          0.6498604068894941 0.6010324628207304 1.0000   
         H         H         1.0       0.12472542131356179           0.8107157643742529 0.5779361604370258 1.0000   
         H         H         1.0       0.15777201474324953           0.8203721236685859 0.48957328959702345          1.0000   
         C         C         1.0       0.14204954451439744           0.7501469556017719 0.6842167172420703 1.0000   
         C         C         1.0       0.08300030272576264           0.715555447166047  0.7023692170892302 1.0000   
         C         C         1.0       0.0684405341746992  0.6849572729976888  0.7545467711024287 1.0000   
         C         C         1.0       0.10356034891233823           0.675047928372654  0.7804334157673662 1.0000   
         C         C         1.0       0.1578657646460777  0.7012869816429602  0.7587212004910516 1.0000   
         C         C         1.0       0.17858419213642995           0.7421267058646468 0.7133549884373359 1.0000   
         C         C         1.0       0.04097574845882912           0.7206017403078543 0.6657153203619698 1.0000   
         C         C         1.0       0.9733289902555092  0.6731008498770719  0.6766473496252373 1.0000   
         C         C         1.0       0.9337268424122221  0.6823175750488752  0.6668564833345952 1.0000   
         C         C         1.0       0.875939375947839   0.6417049275113751  0.6650360776451553 1.0000   
         C         C         1.0       0.8568440913424752  0.5914785731216253  0.6736851407053894 1.0000   
         C         C         1.0       0.8960847785297332  0.5831622837699743  0.6874400000296822 1.0000   
         C         C         1.0       0.9524121462255498  0.6219445910471934  0.6911382618198522 1.0000   
         C         C         1.0       0.03734075074793197           0.7638333241223488 0.7499520370204068 1.0000   
         C         C         1.0       0.0231038036171487  0.7900530545347629  0.7686115499443742 1.0000   
         C         C         1.0       0.02153581339009758           0.8263167181406537 0.731250537379131  1.0000   
         C         C         1.0       0.03889137471581283           0.8367089290311948 0.6736351063413946 1.0000   
         C         C         1.0       0.0510336466800001  0.8071168908973112  0.6545728998647683 1.0000   
         C         C         1.0       0.04475785998755555           0.7658754926792083 0.6910034713136998 1.0000   
         C         C         1.0       0.9927282301925446  0.850557710924431   0.7562145381286385 1.0000   
         C         C         1.0       0.8195388922348089  0.7398448845723872  0.7001540355561225 1.0000   
         C         C         1.0       0.8364233877721418  0.7298870904550263  0.7535541563698479 1.0000   
         C         C         1.0       0.8871526921218759  0.7645763811756392  0.7724047431414623 1.0000   
         C         C         1.0       0.92836860819575    0.8113851303635361  0.738614365653285  1.0000   
         C         C         1.0       0.9141292326831484  0.8228056784218272  0.6823612892968764 1.0000   
         C         C         1.0       0.8580772374051663  0.7869593954223963  0.6661263575215253 1.0000   
         C         C         1.0       0.020275118245916435          0.908451539861956  0.7299008827102133 1.0000   
         C         C         1.0       0.07185275551251435           0.9432430841041746 0.6966268148017898 1.0000   
         C         C         1.0       0.08983661655879072           0.9923601421165278 0.6721711897488667 1.0000   
         C         C         1.0       0.05395688419132472           0.005140219194284201         0.6806636968308702 1.0000   
         C         C         1.0       0.006722858763355433          0.9752396798868841 0.7156535435393325 1.0000   
         C         C         1.0       0.9872787785177779  0.9248400518391148  0.7377591255656271 1.0000   
         C         C         1.0       0.9609070995877809  0.8433027852527821  0.8632174218584545 1.0000   
         C         C         1.0       0.967226705734119   0.8397183194022543  0.9221497700059433 1.0000   
         C         C         1.0       0.018819534026396578          0.8556720652814378 0.9444043387689479 1.0000   
         C         C         1.0       0.0631365398325694  0.8738104297743157  0.9062466048542229 1.0000   
         C         C         1.0       0.05816888925866803           0.8757417858412305 0.8454705442830108 1.0000   
         C         C         1.0       0.006844940129978383          0.858780754925793  0.8240919248091074 1.0000   
         H         H         1.0       0.16104606040295755           0.7850363582149895 0.6513723437903381 1.0000   
         H         H         1.0       0.026244217800943437          0.6664591769901991 0.7750704327239039 1.0000   
         H         H         1.0       0.09002977597651696           0.6497154601361742 0.8225769351358778 1.0000   
         H         H         1.0       0.22221079757108164           0.7654916458186954 0.6961575616886617 1.0000   
         H         H         1.0       0.9431815545715083  0.7198072140727684  0.6540365846439594 1.0000   
         H         H         1.0       0.8477203245205052  0.6516988727125289  0.6574015282818733 1.0000   
         H         H         1.0       0.8881537980810038  0.5487058859048904  0.6864176417104769 1.0000   
         H         H         1.0       0.9814427865517447  0.6117674602339288  0.6964737444467111 1.0000   
         H         H         1.0       0.02920579647208954           0.7341467637519729 0.7842162989248238 1.0000   
         H         H         1.0       0.012742427385989297          0.7816606622969328 0.8170716764959645 1.0000   
         H         H         1.0       0.031201578361913285          0.8595039924459116 0.6450611081886969 1.0000   
         H         H         1.0       0.05688262884458406           0.8114711294068537 0.6068564102034599 1.0000   
         H         H         1.0       0.8024705261461081  0.6905785334190756  0.7777046662476212 1.0000   
         H         H         1.0       0.8953484715353711  0.7536915768765488  0.8119984167888387 1.0000   
         H         H         1.0       0.9467776600284544  0.8574239640052272  0.652003787476505  1.0000   
         H         H         1.0       0.8478171765648274  0.7913510021000765  0.6199236761639695 1.0000   
         H         H         1.0       0.10044369062919589           0.9361193882863811 0.6821294311051312 1.0000   
         H         H         1.0       0.13131772974595113           0.017375253494867682         0.649578816724167  1.0000   
         H         H         1.0       0.9786866935830125  0.984610771925472   0.7145405003005217 1.0000   
         H         H         1.0       0.9467157618396074  0.8974382976954629  0.7594899300642495 1.0000   
         H         H         1.0       0.9173475329637105  0.8281493417825271  0.8519355216864146 1.0000   
         H         H         1.0       0.9331621393969753  0.8237969352339715  0.9527958106181875 1.0000   
         H         H         1.0       0.10565679685170459           0.8904958312336011 0.9193412678940078 1.0000   
         H         H         1.0       0.0954245329592287  0.8909101054271451  0.8162015735779502 1.0000   
         C         C         1.0       0.9870629394291871  0.9521733353143373  0.38728863692818455          1.0000   
         C         C         1.0       0.00938573909859386           0.9630220273865097 0.3313215388862476 1.0000   
         C         C         1.0       0.9804226882823897  0.9641249633849918  0.2850408402962208 1.0000   
         C         C         1.0       0.9267173528728948  0.9516815570556624  0.29023974166805644          1.0000   
         C         C         1.0       0.905466223898162   0.9421479042841636  0.3458386445722366 1.0000   
         C         C         1.0       0.9377169760800422  0.9464862075250717  0.3920456260401653 1.0000   
         H         H         1.0       0.048614931371780745          0.9682484533016609 0.3278519524019745 1.0000   
         H         H         1.0       0.9994017214682087  0.9770424484627368  0.24362171905123553          1.0000   
         H         H         1.0       0.8657769900664597  0.9354901668910974  0.3509062332120096 1.0000   
         H         H         1.0       0.9196610106843346  0.9417702726668624  0.43343380888412747          1.0000   
         C         C         1.0       0.8168322020299749  0.842041238283027   0.2885191773863156 1.0000   
         C         C         1.0       0.8224788341868192  0.8833915305393015  0.2544753495885308 1.0000   
         C         C         1.0       0.7729425910794457  0.8734879487901106  0.23123776084804315          1.0000   
         C         C         1.0       0.7233156834561607  0.8238508813736708  0.23757614972402052          1.0000   
         C         C         1.0       0.7182002856613867  0.784102802139097   0.27000874814585885          1.0000   
         C         C         1.0       0.7685782054956145  0.7943483688875416  0.29317422751414823          1.0000   
         C         C         1.0       0.8839442695756539  0.938696033465015   0.23738043250361063          1.0000   
         C         C         1.0       0.8997925199310481  0.9301595209741138  0.17871821093814488          1.0000   
         C         C         1.0       0.8753317176773985  0.9373075542089023  0.12833528781563786          1.0000   
         C         C         1.0       0.8794354358455677  0.927804338687529   0.07458346412036354          1.0000   
         C         C         1.0       0.9041030372595705  0.9064629166876693  0.06809414959099058          1.0000   
         C         C         1.0       0.9279710105756217  0.8975980454098081  0.11842206009121536          1.0000   
         C         C         1.0       0.9245704684447075  0.9076452407865644  0.1734962262183013 1.0000   
         C         C         1.0       0.8443037021342881  0.9854073960593273  0.2651163791792018 1.0000   
         C         C         1.0       0.8301539943436513  0.016159295360717918         0.24626039065430477          1.0000   
         C         C         1.0       0.8586354617233153  0.0526607611720884  0.19426186063470557          1.0000   
         C         C         1.0       0.9034308851565622  0.057660854702844544         0.16971482416309303          1.0000   
         C         C         1.0       0.9234680015337813  0.031388856359426676         0.1963167199701863 1.0000   
         C         C         1.0       0.8813800177098046  0.9840162812110024  0.2326628688481851 1.0000   
         C         C         1.0       0.8275942184228152  0.07361749790780436           0.16084007954291182          1.0000   
         C         C         1.0       0.7253116984567902  0.9345402765444     0.08104826519804798          1.0000   
         C         C         1.0       0.7046975349635002  0.9354495370643244  0.13312328762650338          1.0000   
         C         C         1.0       0.732868296828608   0.9796190139900908  0.156513546922432  1.0000   
         C         C         1.0       0.782755282466749   0.024318737513038702         0.1287461947774875 1.0000   
         C         C         1.0       0.8074527166536045  0.02177743077082095           0.08218656421156378          1.0000   
         C         C         1.0       0.780888374359666   0.9775543852939408  0.05915193132806996          1.0000   
         C         C         1.0       0.8623822096139068  0.1257602629908412  0.11324503026802857          1.0000   
         C         C         1.0       0.9188088683326529  0.1676779334377485  0.11364916239921354          1.0000   
         C         C         1.0       0.9426387028572549  0.20995574460070765           0.07342903437747106          1.0000   
         C         C         1.0       0.911797300204579   0.21403973364050466           0.0292990530335886 1.0000   
         C         C         1.0       0.8566144382537321  0.1711008933387841  0.026494089573807948         1.0000   
         C         C         1.0       0.8330221726553781  0.12947020518901597           0.06712813105675021          1.0000   
         C         C         1.0       0.7449357558759582  0.06270428952890983           0.21964060380374556          1.0000   
         C         C         1.0       0.7297483335413598  0.06880761600874519           0.26971905570129406          1.0000   
         C         C         1.0       0.7679372058284256  0.09572326777465068           0.3095703306609535 1.0000   
         C         C         1.0       0.8250845216970951  0.12342010760299749           0.29410760064618313          1.0000   
         C         C         1.0       0.8418368524291897  0.11413773366394908           0.24889334053006748          1.0000   
         C         C         1.0       0.8034779954330947  0.0862537602309088  0.20763441281789727          1.0000   
         H         H         1.0       0.8460370457391984  0.8445033652027428  0.3154998082280709 1.0000   
         H         H         1.0       0.7784966028646773  0.9037354558143961  0.2020264353979433 1.0000   
         H         H         1.0       0.6867097004015519  0.811813494415598   0.2104349167483197 1.0000   
         H         H         1.0       0.7675877010607923  0.7642551127357498  0.3213766192806651 1.0000   
         H         H         1.0       0.854704271976633   0.9529315390974691  0.12921700479826725          1.0000   
         H         H         1.0       0.8627311719012664  0.9394573307764932  0.03880938413267154          1.0000   
         H         H         1.0       0.9529746591476946  0.8842675965234058  0.11441308719777776          1.0000   
         H         H         1.0       0.9431384505756432  0.8967578502130806  0.20803807859311885          1.0000   
         H         H         1.0       0.8208531378644046  0.95703622385587    0.3054512314831623 1.0000   
         H         H         1.0       0.7927713330337957  0.004930997582241581         0.2702120554803884 1.0000   
         H         H         1.0       0.9302244538759239  0.08866316994713652           0.1288320782243657 1.0000   
         H         H         1.0       0.955050255485471   0.035134105734638155         0.17256607293798076          1.0000   
         H         H         1.0       0.6673284766354589  0.9020230071120607  0.1565814073986139 1.0000   
         H         H         1.0       0.7213498758186474  0.9787951049900927  0.19951172504808443          1.0000   
         H         H         1.0       0.847789188375053   0.0561323501251787  0.06132653460474269          1.0000   
         H         H         1.0       0.8000485921283834  0.9763432453354576  0.01964397340884294          1.0000   
         H         H         1.0       0.9422984879505546  0.1627472966967276  0.14640879120613692          1.0000   
         H         H         1.0       0.9875548702717137  0.23743648513853133           0.0771764045390917 1.0000   
         H         H         1.0       0.8314726483250767  0.16647432632069914           0.9884771370625944 1.0000   
         H         H         1.0       0.7895990075112018  0.09885533142088265           0.06326030433604712          1.0000   
         H         H         1.0       0.7152609245561241  0.045766927552325365         0.1885845936786923 1.0000   
         H         H         1.0       0.6864188057942718  0.05582675601948006           0.27430671010517343          1.0000   
         H         H         1.0       0.8572948090292124  0.14892655003591093           0.32139266196841976          1.0000   
         H         H         1.0       0.8866151334855756  0.13106353105800994           0.2504938965978525 1.0000   
         C         C         1.0       0.9956503281401995  0.03690902299692134           0.5749291707055687 1.0000   
         C         C         1.0       0.9792746822417326  0.06607710130633593           0.5566091391824617 1.0000   
         C         C         1.0       0.9219535195405791  0.042790617439464995         0.5501259477179007 1.0000   
         C         C         1.0       0.8807533199014895  0.9902766745097166  0.5636454034866795 1.0000   
         C         C         1.0       0.9009065714928085  0.9620110111700663  0.5799937353079139 1.0000   
         C         C         1.0       0.9572022407227355  0.9856642497514612  0.5851836306905895 1.0000   
         H         H         1.0       0.009489472198600302          0.10790629766578408          0.5500134916462943 1.0000   
         H         H         1.0       0.9078699698326846  0.065106362475285   0.531432092775919  1.0000   
         H         H         1.0       0.8746719600172006  0.9213583635687274  0.5886608439543632 1.0000   
         H         H         1.0       0.9701588313871619  0.9637065566488711  0.6024074618976814 1.0000   
         C         C         1.0       0.8064852236062138  0.906395043960334   0.48675914053797426          1.0000   
         C         C         1.0       0.7816883583902285  0.9070126029871111  0.5357539734893659 1.0000   
         C         C         1.0       0.7288200962371327  0.8618935559096217  0.5557191184996774 1.0000   
         C         C         1.0       0.7090626357563237  0.8169928145436728  0.5378215273686452 1.0000   
         C         C         1.0       0.7422687461697448  0.8171673155588366  0.49673016531250386          1.0000   
         C         C         1.0       0.7904507376126613  0.8621098695027459  0.4713930019223359 1.0000   
         C         C         1.0       0.8134380120121629  0.9605399462593036  0.5594992933914915 1.0000   
         C         C         1.0       0.7892101977387971  0.9824738196390245  0.5148130238732429 1.0000   
         C         C         1.0       0.7392352861277708  0.9731073152558132  0.530448839420417  1.0000   
         C         C         1.0       0.7161007612019606  0.9919297307763297  0.49337110894748937          1.0000   
         C         C         1.0       0.7474094624539713  0.02751177758214518           0.4420157024443884 1.0000   
         C         C         1.0       0.797702162937237   0.03750484273675947           0.4274194404202124 1.0000   
         C         C         1.0       0.8182417437319129  0.014473403397275542         0.46317227141339645          1.0000   
         C         C         1.0       0.7840332804266329  0.9095204389025163  0.6698123001937717 1.0000   
         C         C         1.0       0.767745968602119   0.9005218746708046  0.7277029881738797 1.0000   
         C         C         1.0       0.7727879382102207  0.9398344555926252  0.7509960396336492 1.0000   
         C         C         1.0       0.7862071181968294  0.9820413569037297  0.7113650577865073 1.0000   
         C         C         1.0       0.7983683603087918  0.9873965216540309  0.6522941516808811 1.0000   
         C         C         1.0       0.7970019773133046  0.9507211635804127  0.6291770589809355 1.0000   
         C         C         1.0       0.7667238583185544  0.9380393994622013  0.8204630109468242 1.0000   
         C         C         1.0       0.5892523982353174  0.881745455108904   0.8304147310610694 1.0000   
         C         C         1.0       0.6022698161346143  0.8503287633546365  0.852358214085833  1.0000   
         C         C         1.0       0.655385453652416   0.8664909715628458  0.8441301689773484 1.0000   
         C         C         1.0       0.7009760370959975  0.9154650511748283  0.8233333369847241 1.0000   
         C         C         1.0       0.6884074004823278  0.9495832119458564  0.8107079657170754 1.0000   
         C         C         1.0       0.6326734473898984  0.9324514858070139  0.8080814928101796 1.0000   
         C         C         1.0       0.8057881004421156  0.9907617065897525  0.8449696403751341 1.0000   
         C         C         1.0       0.8561150915977337  0.03423524445587711           0.8184638090735846 1.0000   
         C         C         1.0       0.8817717312924676  0.08218992625504384           0.8391122036842613 1.0000   
         C         C         1.0       0.8545752735626548  0.0838312664616585  0.883149003170878  1.0000   
         C         C         1.0       0.8137583281208678  0.03907177661088079           0.9192248410946314 1.0000   
         C         C         1.0       0.7874796430172198  0.9949497824748639  0.8972686783628915 1.0000   
         C         C         1.0       0.7580373478596929  0.8827602867202247  0.920958870190977  1.0000   
         C         C         1.0       0.7799935751604896  0.8635636430213696  0.9632778135362361 1.0000   
         C         C         1.0       0.8288920785388431  0.8721196852887254  0.9409207116128341 1.0000   
         C         C         1.0       0.849414700288776   0.8911349921557713  0.8838452562158228 1.0000   
         C         C         1.0       0.8273836727873218  0.9114217041502911  0.8478238452760686 1.0000   
         C         C         1.0       0.781466204850121   0.9071014457947825  0.8634425698222696 1.0000   
         H         H         1.0       0.8453320378632815  0.9432036235573438  0.4600104440935764 1.0000   
         H         H         1.0       0.7026626279874782  0.8606578082132539  0.5873167581725229 1.0000   
         H         H         1.0       0.6667989135875887  0.7813332193506873  0.5577528281645184 1.0000   
         H         H         1.0       0.8144064650443192  0.8641458022634249  0.4361277602375976 1.0000   
         H         H         1.0       0.713820008916373   0.9460690513499788  0.5680250820493797 1.0000   
         H         H         1.0       0.6750314881686785  0.9755334772670284  0.5100904891884682 1.0000   
         H         H         1.0       0.8229057239740865  0.061765669177995086         0.384699814169718  1.0000   
         H         H         1.0       0.8614975964144705  0.0280276804987325  0.44989039467736297          1.0000   
         H         H         1.0       0.7853173515874835  0.8794370754851129  0.6624139989721042 1.0000   
         H         H         1.0       0.7563557742234116  0.8658596618344983  0.7561742097708042 1.0000   
         H         H         1.0       0.7956778335969659  0.015624174445627359         0.72630101575366   1.0000   
         H         H         1.0       0.8101394820350951  0.022480122883696607         0.6235616085298891 1.0000   
         H         H         1.0       0.5697652252508116  0.8104482757099596  0.8729108524432525 1.0000   
         H         H         1.0       0.6599778233499896  0.8372148641034207  0.8502654485971964 1.0000   
         H         H         1.0       0.7195804456477677  0.9882640589418568  0.7887052489672796 1.0000   
         H         H         1.0       0.6251300059791477  0.9615689195088583  0.796424566660753  1.0000   
         H         H         1.0       0.872473816899435   0.03081260138843156           0.7815137499109607 1.0000   
         H         H         1.0       0.9126101471103797  0.11698930712977118           0.8101493437678949 1.0000   
         H         H         1.0       0.7888369700267903  0.03479368221683088           0.9540423831332011 1.0000   
         H         H         1.0       0.745879178773453   0.9665877551482442  0.9191112087400329 1.0000   
         H         H         1.0       0.7267308397618729  0.8853423954598892  0.9390460598050602 1.0000   
         H         H         1.0       0.7579120467225076  0.8407320468526186  0.00448956523199473          1.0000   
         H         H         1.0       0.8909476053568972  0.9016576298026209  0.8756916660647566 1.0000   
         H         H         1.0       0.8501743947855087  0.9296802701546051  0.805379063956547  1.0000   
         C         C         1.0       0.9786576359261546  0.3269748314906724  0.2104358538715803 1.0000   
         C         C         1.0       0.9313388106187245  0.3083326647043009  0.2465701660155844 1.0000   
         C         C         1.0       0.920275196734703   0.3394459319967425  0.26222305940841006          1.0000   
         C         C         1.0       0.9584655288837289  0.39181781111329567           0.24182215572583363          1.0000   
         C         C         1.0       0.004833754676232926          0.40983666855360384          0.20756788294849396          1.0000   
         C         C         1.0       0.012219532527964372          0.37781669784419697          0.18525440076815047          1.0000   
         H         H         1.0       0.8996152586574839  0.2679073112443357  0.2681775230028475 1.0000   
         H         H         1.0       0.8774807266794398  0.31967246647196146           0.2824917414203931 1.0000   
         H         H         1.0       0.034050165991850845          0.44655120691338235          0.1906418932826181 1.0000   
         H         H         1.0       0.044018405093641855          0.3928273767445402 0.15286790437854259          1.0000   
         C         C         1.0       0.05532805825277509           0.49126158952400323          0.2896615963715511 1.0000   
         C         C         1.0       0.999524883498836   0.4758402715165169  0.2834019322756019 1.0000   
         C         C         1.0       0.9893102885954846  0.5066907521301761  0.30307243070209616          1.0000   
         C         C         1.0       0.028224322102568644          0.5464249169860049 0.33289114976620454          1.0000   
         C         C         1.0       0.08057935594735288           0.5598199088801433 0.3325060365760197 1.0000   
         C         C         1.0       0.09358776886586773           0.5310362089259639 0.31586987353658996          1.0000   
         C         C         1.0       0.946449790151522   0.4303758637139234  0.25353774283992964          1.0000   
         C         C         1.0       0.8967869993415903  0.4022031476175     0.3053044305443732 1.0000   
         C         C         1.0       0.8474607594001724  0.39747509295778355           0.2978029449592848 1.0000   
         C         C         1.0       0.8064985202008168  0.37041030314512424           0.3449397342044438 1.0000   
         C         C         1.0       0.8168063459882146  0.3535686194327375  0.39919248609584146          1.0000   
         C         C         1.0       0.8688824105185418  0.3637480604221227  0.40924671360291676          1.0000   
         C         C         1.0       0.9054852632551087  0.382957177289104   0.3608538239600293 1.0000   
         C         C         1.0       0.9838958587608677  0.500496790114624   0.15982290780831   1.0000   
         C         C         1.0       0.9914117075863365  0.5121911265775377  0.10052846210357937          1.0000   
         C         C         1.0       0.9579818382498605  0.4718409591007345  0.06837305414824524          1.0000   
         C         C         1.0       0.9068443996735119  0.4293437544576359  0.09670453868141783          1.0000   
         C         C         1.0       0.8972984879701466  0.42035011137565    0.15569289010912968          1.0000   
         C         C         1.0       0.9395236860069799  0.4517233057941484  0.18798306151501534          1.0000   
         C         C         1.0       0.9822537725227053  0.47394867152553277           0.007111948702574145         1.0000   
         C         C         1.0       0.9373164065095798  0.5534845856735279  0.8762376562749229 1.0000   
         C         C         1.0       0.9809649504109025  0.5818555689720226  0.9118849139904179 1.0000   
         C         C         1.0       0.9957750414327754  0.5585648785770515  0.9543246337120526 1.0000   
         C         C         1.0       0.9661411939398458  0.5048394290794124  0.9630608613894474 1.0000   
         C         C         1.0       0.921492143473544   0.478503300140066   0.9285311352583021 1.0000   
         C         C         1.0       0.9065716411316643  0.5021317414997607  0.8859736057964142 1.0000   
         C         C         1.0       0.9613169070607485  0.41968866155156087           0.992991301143343  1.0000   
         C         C         1.0       0.9530202133845913  0.3826544658169871  0.037085580067119484         1.0000   
         C         C         1.0       0.9354498063167133  0.33584955573695074           0.02790725390121951          1.0000   
         C         C         1.0       0.9292702226004768  0.326229559467915   0.9698763513908192 1.0000   
         C         C         1.0       0.9424948677316615  0.364179827341997   0.9272208801085948 1.0000   
         C         C         1.0       0.9587774501128098  0.4096584266154705  0.936174977644369  1.0000   
         C         C         1.0       0.08720646222503992           0.536175833956363  0.9611073616475476 1.0000   
         C         C         1.0       0.14218363389629274           0.5492375870947702 0.9603028571589131 1.0000   
         C         C         1.0       0.15481103992318213           0.5241494264231548 0.0035185451645045607        1.0000   
         C         C         1.0       0.12136494588380131           0.49971624769542855          0.05473656076528188          1.0000   
         C         C         1.0       0.07029543774178437           0.4905451706407859 0.05756367947231045          1.0000   
         C         C         1.0       0.049582621499443036          0.502593265571185  0.009744053301376843         1.0000   
         H         H         1.0       0.06792967833313357           0.4696874656438747 0.27620743841591555          1.0000   
         H         H         1.0       0.9499169635253533  0.5019255408791365  0.2977107292120077 1.0000   
         H         H         1.0       0.02175357818916379           0.5682541383729715 0.35420707203886137          1.0000   
         H         H         1.0       0.13475843066353455           0.5427770184678888 0.3165224941670347 1.0000   
         H         H         1.0       0.8363074700979803  0.40964703277415043           0.2571562573547072 1.0000   
         H         H         1.0       0.7675279430831845  0.36188927401662496           0.3404748739060745 1.0000   
         H         H         1.0       0.8780621681174489  0.34938368942632664           0.44898645498771045          1.0000   
         H         H         1.0       0.9418447040105158  0.38411073174132127           0.3693638851326082 1.0000   
         H         H         1.0       0.017026578918518886          0.5293994262666097 0.1827114461879672 1.0000   
         H         H         1.0       0.030170045388019817          0.5488527732752151 0.08192406389385187          1.0000   
         H         H         1.0       0.8793306080602421  0.3989693128353302  0.06999584164649386          1.0000   
         H         H         1.0       0.8649427112819537  0.382457269285444   0.17595986366061134          1.0000   
         H         H         1.0       0.0066232549923459505         0.6224547696453709 0.9053359542028457 1.0000   
         H         H         1.0       0.028012581720249896          0.5814119084779823 0.9818508105001255 1.0000   
         H         H         1.0       0.8968037323404453  0.43863509586306637           0.9371900704970295 1.0000   
         H         H         1.0       0.8675220598367722  0.47661035171545646           0.8690410458759755 1.0000   
         H         H         1.0       0.9606690532297195  0.38501054867249007           0.08331847574098017          1.0000   
         H         H         1.0       0.9238277742715028  0.30809155935560895           0.06703765638967529          1.0000   
         H         H         1.0       0.9405671491944407  0.35811381333062337           0.8830207841293201 1.0000   
         H         H         1.0       0.9686485765357685  0.43784187087557364           0.8984186553502191 1.0000   
         H         H         1.0       0.07349497190756571           0.5474208482984477 0.9207019659100538 1.0000   
         H         H         1.0       0.16633448326426192           0.566817837315491  0.9218835932858456 1.0000   
         H         H         1.0       0.1306302663151826  0.48186561047921483           0.08961360266662899          1.0000   
         H         H         1.0       0.04317406048130312           0.46148308211233297          0.09272673630536055          1.0000   
         C         C         1.0       0.16454353951557654           0.3893541285926354 0.6563493798192738 1.0000   
         C         C         1.0       0.13102926704898388           0.361839968499257  0.7085569469904837 1.0000   
         C         C         1.0       0.1128747024431136  0.3818191941631859  0.7380914768989953 1.0000   
         C         C         1.0       0.12564164249217824           0.42923984974880963          0.715123480480676  1.0000   
         C         C         1.0       0.15147668774395862           0.4524216448045832 0.6593501683084875 1.0000   
         C         C         1.0       0.1703168329341196  0.43213436243934145           0.6314877866326215 1.0000   
         H         H         1.0       0.13387726478984918           0.3332106499624569 0.7303670307608685 1.0000   
         H         H         1.0       0.09461184268800316           0.36581215392077476          0.7817093572725053 1.0000   
         H         H         1.0       0.16222198744721283           0.4904152773715343 0.6362912052423382 1.0000   
         H         H         1.0       0.19829143614036515           0.4546398197690912 0.591331712822779  1.0000   
         C         C         1.0       0.19794388032169064           0.553486895471845  0.7270727020465735 1.0000   
         C         C         1.0       0.13945493568968947           0.5166396836549482 0.7415419580791562 1.0000   
         C         C         1.0       0.10987094690505872           0.5324210415892503 0.7534522509847489 1.0000   
         C         C         1.0       0.13638189404627532           0.5827553996994488 0.7533841256350735 1.0000   
         C         C         1.0       0.19419306724714525           0.6188970326023739 0.7463818165631533 1.0000   
         C         C         1.0       0.22508355757658816           0.6039268480213839 0.734193061475744  1.0000   
         C         C         1.0       0.11020190083027281           0.45537487420255013          0.7536166409751454 1.0000   
         C         C         1.0       0.12772928842011178           0.4522813514906058 0.8170037591905653 1.0000   
         C         C         1.0       0.09476860961941602           0.44379576232718837          0.8628794794974799 1.0000   
         C         C         1.0       0.1072122465714469  0.438348864036586   0.9187108927614331 1.0000   
         C         C         1.0       0.16180155425556775           0.4575633975867621 0.9280108887147742 1.0000   
         C         C         1.0       0.19542659061435996           0.46293130392138376          0.8844710293602618 1.0000   
         C         C         1.0       0.1788825024342391  0.4631759903899155  0.8279995288318054 1.0000   
         C         C         1.0       0.020626860447174655          0.4267183434557895 0.6941977341174577 1.0000   
         C         C         1.0       0.9624309941673732  0.3870080331723054  0.6836490920015683 1.0000   
         C         C         1.0       0.9276070238035521  0.3440345642438165  0.7231703794802495 1.0000   
         C         C         1.0       0.9509894263975781  0.33676505102888055           0.774258176576049  1.0000   
         C         C         1.0       0.008929929264940517          0.37084793272662053          0.7798399316707595 1.0000   
         C         C         1.0       0.044163515129550746          0.41850388850506803          0.7446214134030856 1.0000   
         C         C         1.0       0.8614498993560339  0.3092250933484745  0.7180866664051829 1.0000   
         C         C         1.0       0.8074410619785173  0.381051565951909   0.798159773359394  1.0000   
         C         C         1.0       0.8253791042454574  0.3974976349442228  0.7413900530013529 1.0000   
         C         C         1.0       0.8466445692441015  0.37835680740930955           0.7167604920377085 1.0000   
         C         C         1.0       0.8486527813921821  0.34018294393266724           0.7487179506745062 1.0000   
         C         C         1.0       0.8434717954249403  0.3340027923597174  0.8084462777938701 1.0000   
         C         C         1.0       0.8168578556273037  0.3497870930308607  0.8315416086447107 1.0000   
         C         C         1.0       0.834780027967623   0.2531732747570543  0.7487515024502568 1.0000   
         C         C         1.0       0.8617683346790685  0.2343238912996075  0.7310524224041649 1.0000   
         C         C         1.0       0.8570081453079195  0.19640291916978508           0.7676987815366844 1.0000   
         C         C         1.0       0.8167283032735594  0.16939289216204778           0.815973602566622  1.0000   
         C         C         1.0       0.7837642572545802  0.1830886142600452  0.8257123803200893 1.0000   
         C         C         1.0       0.7915396200884007  0.2241298208814937  0.7919349671904318 1.0000   
         C         C         1.0       0.7784282975293658  0.28374778712108745           0.6508687557187247 1.0000   
         C         C         1.0       0.7535371516444692  0.27459589227389186           0.596955350854118  1.0000   
         C         C         1.0       0.7839523701289177  0.28110144457806846           0.549971451512785  1.0000   
         C         C         1.0       0.8398876601269866  0.2952944706722184  0.5574605665547837 1.0000   
         C         C         1.0       0.8625603821167722  0.3051711091351849  0.6106910509016866 1.0000   
         C         C         1.0       0.8328958105971934  0.30143137125001    0.6579781031653289 1.0000   
         H         H         1.0       0.22231366119596663           0.5427909336623539 0.7124135332496646 1.0000   
         H         H         1.0       0.06457375672932097           0.5047689175878233 0.763298852648065  1.0000   
         H         H         1.0       0.11088054547569959           0.5949696754595278 0.7575090368678608 1.0000   
         H         H         1.0       0.2690711356691047  0.6312525354208101  0.7276947104576976 1.0000   
         H         H         1.0       0.05578059973209015           0.4378710680168905 0.8524715761043101 1.0000   
         H         H         1.0       0.07996633214770243           0.43690475413562585          0.9510541826010385 1.0000   
         H         H         1.0       0.23691213416905543           0.4736526471010296 0.9004178518467268 1.0000   
         H         H         1.0       0.20419283255109932           0.46454085768123177          0.7937521252017531 1.0000   
         H         H         1.0       0.04345202484635147           0.46319280716555056          0.6688106271148835 1.0000   
         H         H         1.0       0.9487511789234959  0.3951997425782515  0.6424536448550658 1.0000   
         H         H         1.0       0.920940314685795   0.30257349603957256           0.8059918872082372 1.0000   
         H         H         1.0       0.023482583849288474          0.35720679902096475          0.8167738679536422 1.0000   
         H         H         1.0       0.8235718012246809  0.4274423810240851  0.7133821960685328 1.0000   
         H         H         1.0       0.8560898593082507  0.38791126020285444           0.6686363836856434 1.0000   
         H         H         1.0       0.843710238946349   0.30679130328699505           0.8393318171500448 1.0000   
         H         H         1.0       0.8049940700232018  0.3375600181184123  0.8794384512599445 1.0000   
         H         H         1.0       0.895576467419729   0.25752753137140827           0.6950775038374252 1.0000   
         H         H         1.0       0.8774446571388231  0.1800859981352534  0.7614644065829989 1.0000   
         H         H         1.0       0.7542749672796648  0.1632845734782462  0.8626180441124258 1.0000   
         H         H         1.0       0.770921728952102   0.23789379129383814           0.8005853087877379 1.0000   
         H         H         1.0       0.7534080246811298  0.27733122273970223           0.6876597027700166 1.0000   
         H         H         1.0       0.711599065311308   0.2585495647691386  0.5963604339503391 1.0000   
         H         H         1.0       0.8638487652399307  0.29426074536168595           0.5253468734349904 1.0000   
         H         H         1.0       0.9010092518523234  0.30937677758826804           0.6139430624396555 1.0000   
         C         C         1.0       0.5662520874121084  0.6553081473989052  0.27257985180913824          1.0000   
         C         C         1.0       0.5470605947029913  0.6459627425820884  0.21698730631576413          1.0000   
         C         C         1.0       0.5108748527883645  0.5973540915955016  0.20496099091706976          1.0000   
         C         C         1.0       0.48671274683383337           0.55613381516027   0.2497678152663867 1.0000   
         C         C         1.0       0.49910793894799055           0.5664552599154167 0.3048605845093264 1.0000   
         C         C         1.0       0.5405834216772643  0.6136533469557641  0.3186443585998877 1.0000   
         H         H         1.0       0.5632435569313498  0.6740075182212292  0.17776032473949588          1.0000   
         H         H         1.0       0.502610599942463   0.5904221834152306  0.1600917460116409 1.0000   
         H         H         1.0       0.48180209991882206           0.5363452854961563 0.3421618573571421 1.0000   
         H         H         1.0       0.5478081184679102  0.6206233861137067  0.363364202006051  1.0000   
         C         C         1.0       0.5049969135568376  0.48016659784499466           0.30368825912496966          1.0000   
         C         C         1.0       0.45576159921428994           0.462345743166672  0.27816316346433934          1.0000   
         C         C         1.0       0.41048115672330676           0.40981718192068883          0.2915672207581679 1.0000   
         C         C         1.0       0.41609703089511724           0.37957093619734666          0.333465013885482  1.0000   
         C         C         1.0       0.4671474644738779  0.3992138603350435  0.35960758323612696          1.0000   
         C         C         1.0       0.5104849188429816  0.4483587431054902  0.34382191062420775          1.0000   
         C         C         1.0       0.4477450347327838  0.499471773625722   0.23339841576536258          1.0000   
         C         C         1.0       0.47090481983328697           0.49375528691108034          0.17795230784232707          1.0000   
         C         C         1.0       0.43101889913386554           0.46239617912583353          0.1390077401400014 1.0000   
         C         C         1.0       0.450054602659236   0.457001349996395   0.09170315218834735          1.0000   
         C         C         1.0       0.5068667832519171  0.48442236273731704           0.07600740914688076          1.0000   
         C         C         1.0       0.5455210050670366  0.5167969161057483  0.11190278905110485          1.0000   
         C         C         1.0       0.5271173194427761  0.5196478864941991  0.1619926430712506 1.0000   
         C         C         1.0       0.35343637889194407           0.4671591065338459 0.29135032859500837          1.0000   
         C         C         1.0       0.30494083683314954           0.4614356239339766 0.2960265408125063 1.0000   
         C         C         1.0       0.287231244242718   0.4811995931735019  0.2486339127715187 1.0000   
         C         C         1.0       0.32101818101402735           0.5008303406608571 0.19666587909331734          1.0000   
         C         C         1.0       0.3678078609075276  0.5036600514900282  0.18957311567180635          1.0000   
         C         C         1.0       0.3863525862324047  0.4887974305196483  0.2384350938846802 1.0000   
         C         C         1.0       0.2330848107720025  0.4782130194733824  0.25892664022894885          1.0000   
         C         C         1.0       0.08143156541336358           0.3268229279747108 0.2260387973326647 1.0000   
         C         C         1.0       0.09983742196223128           0.3349944087004018 0.28138098914879783          1.0000   
         C         C         1.0       0.1512973054767009  0.38150423336417577           0.29063296983507586          1.0000   
         C         C         1.0       0.18376235311928313           0.42248959425396315          0.24476010983473048          1.0000   
         C         C         1.0       0.16802197977627803           0.4119900509211468 0.18647885144800158          1.0000   
         C         C         1.0       0.11806363276090483           0.3641992293330381 0.181277374074438  1.0000   
         C         C         1.0       0.23258736403119676           0.520704002773837  0.21949329338143017          1.0000   
         C         C         1.0       0.2819219277794963  0.5703580644178338  0.20728911121220264          1.0000   
         C         C         1.0       0.27841571291915046           0.6064281503904739 0.17630018411559475          1.0000   
         C         C         1.0       0.2293537640543435  0.5969436448804235  0.15839526806443138          1.0000   
         C         C         1.0       0.18037037263009212           0.5472222194408545 0.16786616273582988          1.0000   
         C         C         1.0       0.1809608603549702  0.5091918492385197  0.1983357935450417 1.0000   
         C         C         1.0       0.17414227870258375           0.47485192119894015          0.33953643825357926          1.0000   
         C         C         1.0       0.17012442181169066           0.488533382647659  0.3917060093858235 1.0000   
         C         C         1.0       0.21891200376484873           0.5182081157312974 0.4244682025196863 1.0000   
         C         C         1.0       0.26722165903535616           0.5261159369910703 0.4083363834316491 1.0000   
         C         C         1.0       0.27146250471223554           0.5155367971169409 0.3538558462506649 1.0000   
         C         C         1.0       0.22515563707973554           0.4884009454126414 0.3212173989800305 1.0000   
         H         H         1.0       0.544799766056141   0.5185147956405126  0.2901712088361341 1.0000   
         H         H         1.0       0.36699250419960944           0.396149812931005  0.28053983593653764          1.0000   
         H         H         1.0       0.37913351093735964           0.3411337304828077 0.3488318720832482 1.0000   
         H         H         1.0       0.5485669192655087  0.46529511153838915           0.36674084024243636          1.0000   
         H         H         1.0       0.3859313136730548  0.43911992169600317           0.1490018743342172 1.0000   
         H         H         1.0       0.42277872874404543           0.43381189977064066          0.06027107759536965          1.0000   
         H         H         1.0       0.5921762922935487  0.5417886743697317  0.10058887118885651          1.0000   
         H         H         1.0       0.5597040453504368  0.5432687256430311  0.1890552367864773 1.0000   
         H         H         1.0       0.3598121958171578  0.44675886451306823           0.32584194998640176          1.0000   
         H         H         1.0       0.2811244146207629  0.44346180874934754           0.33868227273173646          1.0000   
         H         H         1.0       0.3043981662570977  0.5100379093927337  0.1585065932849039 1.0000   
         H         H         1.0       0.39050774774171126           0.5174428208236471 0.14528007054168302          1.0000   
         H         H         1.0       0.07197010773454982           0.3046147681784452 0.31634462131999486          1.0000   
         H         H         1.0       0.1661809003074851  0.3888485593257959  0.33402130734656776          1.0000   
         H         H         1.0       0.19657750366772617           0.43926867600878766          0.14706704499152812          1.0000   
         H         H         1.0       0.11099943849254423           0.35193382015836033          0.13861294921464284          1.0000   
         H         H         1.0       0.31729392317593924           0.5778348694495518 0.22876723858860318          1.0000   
         H         H         1.0       0.31632332965013593           0.6448793877986719 0.1724235960119537 1.0000   
         H         H         1.0       0.14056962518558186           0.5367135804224272 0.1520152539824624 1.0000   
         H         H         1.0       0.1411803257571202  0.4700064666490504  0.20904002414877168          1.0000   
         H         H         1.0       0.1357363830834105  0.45370617074110126           0.3154826919608338 1.0000   
         H         H         1.0       0.1279965631934923  0.47670808384686814           0.40032340192017435          1.0000   
         H         H         1.0       0.3092227302295706  0.5481042010272366  0.4324533169070208 1.0000   
         H         H         1.0       0.3154950275671871  0.531833672298143   0.339966881929896  1.0000   
         C         C         1.0       0.6190390340994237  0.7119812117185937  0.44969657176310096          1.0000   
         C         C         1.0       0.5893027748311168  0.7298124194021571  0.45861183459819305          1.0000   
         C         C         1.0       0.5342768363067987  0.695178496584194   0.4869029240313923 1.0000   
         C         C         1.0       0.5084664301147709  0.6440668706619455  0.5023272126105579 1.0000   
         C         C         1.0       0.5405247686691258  0.6289308095659035  0.49647668002637785          1.0000   
         C         C         1.0       0.5954569426249251  0.662027720890401   0.47150366194588794          1.0000   
         H         H         1.0       0.6060936264280454  0.7677758279020671  0.4430002641833327 1.0000   
         H         H         1.0       0.51506856076081    0.7106669969576862  0.5010645545805911 1.0000   
         H         H         1.0       0.5245592796695189  0.5898140242544294  0.5158256464594272 1.0000   
         H         H         1.0       0.6193658798257845  0.6482664481673779  0.47227619200497173          1.0000   
         C         C         1.0       0.4109960453077679  0.5502418275041776  0.45733276356597746          1.0000   
         C         C         1.0       0.40844937310679225           0.5504452240805189 0.5166981408867094 1.0000   
         C         C         1.0       0.36963719160715364           0.5025720995718019 0.554714940244954  1.0000   
         C         C         1.0       0.33922375544422134           0.4577004905672994 0.5328680507882919 1.0000   
         C         C         1.0       0.346623317587578   0.45687200743136624           0.47597267456835957          1.0000   
         C         C         1.0       0.38022150229765583           0.5043851452770809 0.4379784190454926 1.0000   
         C         C         1.0       0.44604488276699783           0.6052568395101494 0.5390019465519135 1.0000   
         C         C         1.0       0.40583597591311515           0.6192080596462043 0.5254069187805005 1.0000   
         C         C         1.0       0.3575669351965879  0.5942808731426377  0.5653984598875768 1.0000   
         C         C         1.0       0.31117788044765426           0.5919819319377585 0.5516815971935539 1.0000   
         C         C         1.0       0.30931102023481694           0.6103421597180099 0.4951079405997202 1.0000   
         C         C         1.0       0.357956503563597   0.6406422467743909  0.4577527999952185 1.0000   
         C         C         1.0       0.40346021500396856           0.6430638791234856 0.4724685085766984 1.0000   
         C         C         1.0       0.4735755992412399  0.5657099817384861  0.6308536515398417 1.0000   
         C         C         1.0       0.46996825388930014           0.5542026285098195 0.6906122587253042 1.0000   
         C         C         1.0       0.45972191408034285           0.5752492482247507 0.7283558262762683 1.0000   
         C         C         1.0       0.46185580140613136           0.6165468410902212 0.7035404498384533 1.0000   
         C         C         1.0       0.46311906174790163           0.6291263553301433 0.643879670979748  1.0000   
         C         C         1.0       0.4628713376312045  0.5996117176049617  0.6059703100638237 1.0000   
         C         C         1.0       0.42754483688389044           0.5430818064456185 0.7922116396350779 1.0000   
         C         C         1.0       0.281214134750497   0.4199293171195858  0.7077645307868532 1.0000   
         C         C         1.0       0.31264145253375514           0.41132159975963867          0.7436438498326212 1.0000   
         C         C         1.0       0.35593199177895335           0.4496916821508518 0.7709312123633764 1.0000   
         C         C         1.0       0.3678258225772613  0.49658438116887405           0.7708860856407468 1.0000   
         C         C         1.0       0.3327101697323553  0.5029149354401569  0.7365381090234395 1.0000   
         C         C         1.0       0.29187157383653245           0.4657536506726312 0.7035504049916976 1.0000   
         C         C         1.0       0.4213984465247986  0.575506314203673   0.8296305898202587 1.0000   
         C         C         1.0       0.46452890634389593           0.6215687919475427 0.8445357679120871 1.0000   
         C         C         1.0       0.4542977433443196  0.6556789531230154  0.8515887118517642 1.0000   
         C         C         1.0       0.3994635571203893  0.639866379139849   0.8514833396926001 1.0000   
         C         C         1.0       0.3564848613744584  0.5876835802097875  0.8602049747769448 1.0000   
         C         C         1.0       0.3675079422194447  0.5565615516927241  0.8452144681052076 1.0000   
         C         C         1.0       0.4338802942959542  0.4947604570412053  0.881776279724131  1.0000   
         C         C         1.0       0.46440084220343564           0.4887437666944875 0.9228540437198391 1.0000   
         C         C         1.0       0.5232846023263091  0.5185708571253854  0.9184761719947393 1.0000   
         C         C         1.0       0.5524164580088325  0.5534412840273201  0.8664576350696575 1.0000   
         C         C         1.0       0.5202783754228856  0.5559968600497646  0.8225309906885516 1.0000   
         C         C         1.0       0.46141816137503444           0.52770747132172   0.8291816123655953 1.0000   
         H         H         1.0       0.44040066790528565           0.5827231131716653 0.4241868832917632 1.0000   
         H         H         1.0       0.36080238120898556           0.49803006424315804          0.6006062747147832 1.0000   
         H         H         1.0       0.3140510811028094  0.422253106945196   0.5653722016842424 1.0000   
         H         H         1.0       0.3881102917124903  0.5060061737520067  0.39219714134019745          1.0000   
         H         H         1.0       0.3518971072031525  0.5702781484066791  0.6057839319604172 1.0000   
         H         H         1.0       0.2708446317016744  0.5645941329190637  0.5788471199681952 1.0000   
         H         H         1.0       0.35529550198661336           0.6544627872446751 0.4101103023620531 1.0000   
         H         H         1.0       0.44238262191687766           0.6667028772564444 0.44178046277587824          1.0000   
         H         H         1.0       0.4775935981379367  0.5435642803216866  0.6047268288342039 1.0000   
         H         H         1.0       0.4689208857391521  0.5231869843488501  0.7072174638203026 1.0000   
         H         H         1.0       0.4579198634261116  0.6367104658981929  0.7311292812339076 1.0000   
         H         H         1.0       0.4657276141430956  0.6629796250484865  0.624197382735233  1.0000   
         H         H         1.0       0.3075142187812533  0.3774490816953248  0.7401901695486944 1.0000   
         H         H         1.0       0.3861928469816845  0.4460266364481087  0.791152108338991  1.0000   
         H         H         1.0       0.34408628325016444           0.5407428470473427 0.7235876520122159 1.0000   
         H         H         1.0       0.26869460477435064           0.4730710550571626 0.6713250837793157 1.0000   
         H         H         1.0       0.5068410692021099  0.6340100564068016  0.8350424896417237 1.0000   
         H         H         1.0       0.4874083871933449  0.6937829203998821  0.8530191943061851 1.0000   
         H         H         1.0       0.31203646407250574           0.5714618123097691 0.8696251030865442 1.0000   
         H         H         1.0       0.3312653009258294  0.517570415452525   0.8448150055772014 1.0000   
         H         H         1.0       0.3884807415408941  0.4702158886660576  0.8903659984161951 1.0000   
         H         H         1.0       0.437841766209091   0.45942970466682403           0.9624632299109549 1.0000   
         H         H         1.0       0.5981373382336693  0.5801457171369331  0.859374134300584  1.0000   
         H         H         1.0       0.5428575758441783  0.5841630207103261  0.7850108943414448 1.0000   
         C         C         1.0       0.5228671828299691  0.4711436787405737  0.024578009072554696         1.0000   
         C         C         1.0       0.5551921566670758  0.5138911983365085  0.97046838241411   1.0000   
         H         H         1.0       0.5508534225773218  0.46261981525404544           0.040626399701904736         1.0000   
         H         H         1.0       0.487051702019171   0.436344537586258   0.011138321383269423         1.0000   
         H         H         1.0       0.5804517929695227  0.5068033119675438  0.9483797390107499 1.0000   
         H         H         1.0       0.5882902166391313  0.5540002433105081  0.9795958703237921 1.0000   
         C         C         1.0       0.21101667271304317           0.5338807449539883 0.47789711098348686          1.0000   
         C         C         1.0       0.25115109136499464           0.5927895030574444 0.4753305964549566 1.0000   
         H         H         1.0       0.21412560301190617           0.5117601686422728 0.5182236914948434 1.0000   
         H         H         1.0       0.16945676058025574           0.5228851696261914 0.4787630388653137 1.0000   
         H         H         1.0       0.23302128339182682           0.6051911893980091 0.49951246456936216          1.0000   
         H         H         1.0       0.255220496891236   0.6110660506548035  0.4313724819845017 1.0000   
         C         C         1.0       0.20522196332853704           0.3826154994510081 0.6283153105464696 1.0000   
         C         C         1.0       0.24032769553859837           0.3758096009656355 0.6729226263364927 1.0000   
         H         H         1.0       0.17925071371079504           0.3470801473240906 0.6073694174806771 1.0000   
         H         H         1.0       0.2338029977461138  0.41479338090603374           0.593114634571881  1.0000   
         H         H         1.0       0.26823300901844777           0.3715235886358889 0.6464230341946176 1.0000   
         H         H         1.0       0.21119899291958857           0.33815974884163413          0.7012964943819318 1.0000   
         C         C         1.0       0.9857402030580209  0.29122251894678897           0.18700015151302576          1.0000   
         C         C         1.0       0.023311877224750782          0.280352934384841  0.21677672802174297          1.0000   
         H         H         1.0       0.9444446271115068  0.2550949853069627  0.19332520626983368          1.0000   
         H         H         1.0       0.9953406637555364  0.3001744451197451  0.13870215907435623          1.0000   
         H         H         1.0       0.004352175023073227          0.25686363794423195          0.2611096557407824 1.0000   
         H         H         1.0       0.026177231924059186          0.2582982276512372 0.1885231583700453 1.0000   
         C         C         1.0       0.2043617661355206  0.5252924822915307  0.9894553399663033 1.0000   
         C         C         1.0       0.18574661343730092           0.4718206461601931 0.987524275708005  1.0000   
         H         H         1.0       0.2374900677154972  0.5416908014227254  0.02279327691729427          1.0000   
         H         H         1.0       0.23079890687248117           0.5490757580337096 0.9473367623910487 1.0000   
         H         H         1.0       0.15352880599459828           0.44315624000212234          0.025595242556574194         1.0000   
         H         H         1.0       0.2243242002266228  0.472633248880494   0.993476553825619  1.0000   
         C         C         1.0       0.7684350702495547  0.32187408353090907           0.4484385804425949 1.0000   
         C         C         1.0       0.7608810286986011  0.275872776118248   0.4871853419078698 1.0000   
         H         H         1.0       0.7747204912559729  0.3482637034789931  0.47790575658245504          1.0000   
         H         H         1.0       0.7270951394582148  0.30095513845320154           0.42909750017965914          1.0000   
         H         H         1.0       0.7741870016266298  0.2544410346901986  0.46624138057438813          1.0000   
         H         H         1.0       0.7138093700405105  0.24611453631635744           0.4993611805188634 1.0000   
         C         C         1.0       0.6812278901881588  0.7469024156325742  0.4289645057444273 1.0000   
         C         C         1.0       0.7221206135676133  0.7678663946842054  0.4808208854034116 1.0000   
         H         H         1.0       0.6873377955630043  0.7233887186735835  0.4042936872415616 1.0000   
         H         H         1.0       0.6966625161533564  0.7816543396068124  0.39507865615348237          1.0000   
         H         H         1.0       0.7603215627420827  0.7734998637761897  0.4660848418489323 1.0000   
         H         H         1.0       0.7061093648353315  0.735346858129109   0.5180505008681323 1.0000   
         C         C         1.0       0.8574688303640089  0.1308117184093711  0.8803457083731965 1.0000   
         C         C         1.0       0.8043196669208863  0.12093488193618307           0.8506110148663548 1.0000   
         H         H         1.0       0.9009752973267137  0.16599457112477234           0.8667759596677956 1.0000   
         H         H         1.0       0.8499404614811165  0.13353329421299942           0.926309469784031  1.0000   
         H         H         1.0       0.7684014653908741  0.10005262668774995           0.8826600458407341 1.0000   
         H         H         1.0       0.7911818665366003  0.09198581817045515           0.8240917751704928 1.0000   
         C         C         1.0       0.613218960670848   0.7102920288248414  0.28143956002199744          1.0000   
         C         C         1.0       0.6734051503316146  0.7285691435854332  0.26252177614723315          1.0000   
         H         H         1.0       0.599874582646482   0.7304925640281491  0.25107759014942843          1.0000   
         H         H         1.0       0.6056607964437964  0.7097120878276115  0.3260979478648495 1.0000   
         H         H         1.0       0.6690398600238748  0.7179619278717129  0.21875625865903148          1.0000   
         H         H         1.0       0.67941354169774    0.7018414587678984  0.2907091610673793 1.0000   
         C         C         1.0       0.9410566890548898  0.2595388022069712  0.9814987088775609 1.0000   
         C         C         1.0       0.9032887476353295  0.2746965495443901  0.9597709486889505 1.0000   
         H         H         1.0       0.9854228646658605  0.29034701668391244           0.9919899218317113 1.0000   
         H         H         1.0       0.9507405644784216  0.25048389859434744           0.9445087531763557 1.0000   
         H         H         1.0       0.894599515924521   0.2699430003881971  0.9138538551065973 1.0000   
         H         H         1.0       0.8584114115654685  0.24567110729686392           0.9780202721087241 1.0000   
         C         C         1.0       0.9112313700225283  0.8976146347184967  0.011423876302709024         1.0000   
         C         C         1.0       0.8601517772989065  0.8556488303095624  0.9819710927852691 1.0000   
         H         H         1.0       0.9404345758897892  0.9337156596917108  0.9814457179033316 1.0000   
         H         H         1.0       0.9393200208752788  0.8858507294063599  0.017855770747622568         1.0000   
         H         H         1.0       0.8811945438776726  0.8431097269395618  0.9580579166657022 1.0000   
         H         H         1.0       0.8305760509863968  0.8240732801607888  0.01921565433474859          1.0000   
         C         C         1.0       0.7474111472660216  0.09289704656359121           0.3679611478522842 1.0000   
         C         C         1.0       0.7137275550097295  0.04349263740876075           0.40952713129802826          1.0000   
         H         H         1.0       0.7816558733045089  0.12210124524686883           0.39557608022695767          1.0000   
         H         H         1.0       0.7156930988794784  0.09862135245807102           0.3601590004022096 1.0000   
         H         H         1.0       0.6785820227327659  0.013470004217706277         0.38602336168983337          1.0000   
         H         H         1.0       0.6914751246981641  0.04525102306937856           0.44433867776418173          1.0000   
         C         C         1.0       0.19880332565254544           0.6907094629167227 0.7909848712675747 1.0000   
         C         C         1.0       0.22381073843117205           0.6749088032076834 0.7502271581537211 1.0000   
         H         H         1.0       0.18207763107246566           0.6682443304533778 0.833150179010829  1.0000   
         H         H         1.0       0.23533456464025293           0.7249411431735009 0.8027176833167715 1.0000   
         H         H         1.0       0.2664245157822709  0.6910713695853961  0.7658349881338031 1.0000   
         H         H         1.0       0.2277911036816147  0.6931766937134267  0.7049078538655497 1.0000   
         C         C         1.0       0.07868289553909924           0.061300725019793  0.6474936369196636 1.0000   
         C         C         1.0       0.05988573494225791           0.06168817271227511          0.5827784894511172 1.0000   
         H         H         1.0       0.12529937278462966           0.0914525484959885 0.645964575250474  1.0000   
         H         H         1.0       0.06022840068992008           0.07508575041371057          0.6722163130511022 1.0000   
         H         H         1.0       0.06698148672478599           0.04106109486952625          0.5535115030807353 1.0000   
         H         H         1.0       0.08492888976041724           0.10076523798537473          0.5585661569614476 1.0000   
         C         C         1.0       0.131058385382663   0.6116649735250872  0.3468230063789252 1.0000   
         C         C         1.0       0.1699514773465991  0.6515691522928896  0.2959357712647414 1.0000   
         H         H         1.0       0.11617908097580099           0.6312803025629348 0.36693319637164207          1.0000   
         H         H         1.0       0.155988538711324   0.6040617084278274  0.3773160917044429 1.0000   
         H         H         1.0       0.16643542477973616           0.6330690457331648 0.2578576591854193 1.0000   
         H         H         1.0       0.21405921952903895           0.6737950190361526 0.312033710381449  1.0000   
         C         C         1.0       0.9932911405818987  0.9184635687619501  0.49839337405215156          1.0000   
         C         C         1.0       0.023595980404675032          0.9561378022412671 0.4416443165509933 1.0000   
         H         H         1.0       0.9673300097335347  0.9272035658670535  0.5141929199629809 1.0000   
         H         H         1.0       0.02891893749359631           0.9296301275680254 0.5326800295777666 1.0000   
         H         H         1.0       0.04482009615052829           0.9958139725817349 0.45275906136607835          1.0000   
         H         H         1.0       0.0586434742009212  0.9561984878011485  0.4292838981762418 1.0000   
         C         C         1.0       0.018986236472942952          0.794232040919523  0.02329608629348079          1.0000   
         C         C         1.0       0.018600379304976933          0.8403138159730599 0.010770298781686227         1.0000   
         H         H         1.0       0.04853233741118812           0.7967551471758244 0.9914005678468149 1.0000   
         H         H         1.0       0.9747153760078042  0.7575672092910758  0.022092906666364653         1.0000   
         H         H         1.0       0.9823607137535504  0.8325843020016449  0.032566838606655324         1.0000   
         H         H         1.0       0.05795899195361498           0.877141821981932  0.023720525813079263         1.0000   
         C         C         1.0       0.8000184054400394  0.5533989768564839  0.6480829991366739 1.0000   
         C         C         1.0       0.8062652471571962  0.5502714367515191  0.5831749082995312 1.0000   
         H         H         1.0       0.7736369702372409  0.5670540350081504  0.6471580365306798 1.0000   
         H         H         1.0       0.7723677184459935  0.5161766513162944  0.6742397644271342 1.0000   
         H         H         1.0       0.7649396954757064  0.5231955614416348  0.5657488299673687 1.0000   
         H         H         1.0       0.832449425066685   0.5366007109069547  0.5860164376393118 1.0000   
         C         C         1.0       0.5122646031919573  0.8932722517881018  0.8560835346129182 1.0000   
         C         C         1.0       0.5271657203721144  0.8620363777270055  0.8309427185387374 1.0000   
         H         H         1.0       0.5476062930321027  0.9199231113435291  0.8798528897415788 1.0000   
         H         H         1.0       0.4825255628666251  0.8658800117135074  0.8950920760628468 1.0000   
         H         H         1.0       0.5030890698304556  0.8225860640025612  0.8552360427717535 1.0000   
         H         H         1.0       0.511326063296616   0.8562869729066013  0.7854967256684362 1.0000   
         C         C         1.0       0.398602257390782   0.67682450073386    0.7489241963030381 1.0000   
         C         C         1.0       0.388571506260206   0.6739058395510669  0.8138097883585714 1.0000   
         H         H         1.0       0.3767990958435692  0.6378272964566601  0.7375251752275485 1.0000   
         H         H         1.0       0.44406699393455096           0.6945971517158623 0.7416526281470723 1.0000   
         H         H         1.0       0.3457626249454108  0.6614557326952105  0.8211921777282697 1.0000   
         H         H         1.0       0.4183221946506559  0.7132480995654019  0.8259877613300343 1.0000   
         C         C         1.0       0.1566826349807411  0.7074314444159513  0.440477392924771  1.0000   
         C         C         1.0       0.136558968832587   0.7404864921375998  0.4345338265280856 1.0000   
         H         H         1.0       0.1671820189660074  0.7055927066752834  0.3970176564214856 1.0000   
         H         H         1.0       0.12070674712008245           0.6682816902908776 0.4632895437286433 1.0000   
         H         H         1.0       0.10211045792263351           0.7276137773226331 0.40220730941991806          1.0000   
         H         H         1.0       0.16977824327133412           0.7804476848305183 0.4155689741769096 1.0000   
         C         C         1.0       0.6526388250287127  0.8819518589569966  0.00822477805081534          1.0000   
         C         C         1.0       0.6947285371116066  0.8846595181730339  0.056354286111748086         1.0000   
         H         H         1.0       0.6221766154485151  0.8397829795432349  0.005298104418383298         1.0000   
         H         H         1.0       0.6744284791877256  0.9024283707035923  0.964492915953061  1.0000   
         H         H         1.0       0.7269620108142153  0.8818119087021614  0.04057028824549369          1.0000   
         H         H         1.0       0.6672651226752022  0.8509573814989897  0.09240236669087132          1.0000   
         C         C         1.0       0.17841728800063955           0.6370447925726966 0.10653975973596763          1.0000   
         C         C         1.0       0.22604809050435223           0.6415989738438905 0.14282060308106326          1.0000   
         H         H         1.0       0.13559128878089682           0.6092075794031379 0.1277550438658892 1.0000   
         H         H         1.0       0.17450174633176185           0.6196229217275887 0.06664926290442486          1.0000   
         H         H         1.0       0.22597339180087836           0.6548257811728243 0.18292190287517787          1.0000   
         H         H         1.0       0.2669607830465259  0.6772979067516379  0.12089625680822524          1.0000   
         C         C         1.0       0.3687048096960313  0.9870203936113814  0.21744700383323323          1.0000   
         C         C         1.0       0.33301110560184366           0.00025453467213498726       0.24080588595035612          1.0000   
         H         H         1.0       0.37454994414411924           0.9663713720867646 0.2553049024853962 1.0000   
         H         H         1.0       0.41533453268547726           0.02336810498353903          0.2065341814173729 1.0000   
         H         H         1.0       0.3389837307154222  0.03136023428033785           0.21404671979557355          1.0000   
         H         H         1.0       0.35016081310169955           0.01725120824611648          0.2802645337012142 1.0000   
         C         C         1.0       0.17045555484082317           0.8514631962341754 0.8436128346125119 1.0000   
         C         C         1.0       0.19386111958253377           0.9015447010224102 0.8068983876681651 1.0000   
         H         H         1.0       0.1642831329081775  0.8241950503251095  0.8153077152705436 1.0000   
         H         H         1.0       0.1260907143004294  0.8316580149737866  0.8633754755943543 1.0000   
         H         H         1.0       0.19929422158794113           0.9281616671148917 0.8341344195693452 1.0000   
         H         H         1.0       0.16094270629617163           0.8979972465103346 0.7781283645443605 1.0000   
         C         C         1.0       0.5439019021571547  0.9380836476333969  0.3475975262177949 1.0000   
         C         C         1.0       0.5569618328564179  0.9018301779120829  0.37994041845916243          1.0000   
         H         H         1.0       0.5671139640266522  0.9745188761741325  0.3650755090694674 1.0000   
         H         H         1.0       0.49845035645132    0.9203905951211895  0.36526911622806635          1.0000   
         H         H         1.0       0.5534428352557507  0.8772345556397765  0.35043332759300655          1.0000   
         H         H         1.0       0.6018696460656765  0.9251917856169932  0.3914127537932116 1.0000   
         C         C         1.0       0.7427660134099221  0.6960389277024261  0.6185438683427812 1.0000   
         C         C         1.0       0.7554201234317159  0.704181104906735   0.6831342200015075 1.0000   
         H         H         1.0       0.7789586640818373  0.70990106207502    0.5918351744780233 1.0000   
         H         H         1.0       0.7336314726591489  0.7213146878808545  0.5961584842757239 1.0000   
         H         H         1.0       0.7330098426474663  0.6667319942384997  0.7118907832401092 1.0000   
         H         H         1.0       0.7345757623003755  0.7210865656622933  0.6952872251283551 1.0000   
         C         C         1.0       0.7111220437796364  0.36627337684521183           0.8063443143356269 1.0000   
         C         C         1.0       0.7758689516569777  0.39908085839434077           0.8202402254562363 1.0000   
         H         H         1.0       0.6916639394119662  0.3792789314486331  0.8294922085609935 1.0000   
         H         H         1.0       0.6927249312722252  0.3262236012752783  0.829964717894345  1.0000   
         H         H         1.0       0.7785170829116601  0.3967848856123455  0.8691524277307946 1.0000   
         H         H         1.0       0.7981042591966344  0.4391643334504313  0.803124151069028  1.0000   
         C         C         1.0       0.5242700436898191  0.17497300483209788           0.5141823780426753 1.0000   
         C         C         1.0       0.49362739448972565           0.1605192670331108 0.5758401058774724 1.0000   
         H         H         1.0       0.495467851881391   0.16359605978805836           0.47829916781254117          1.0000   
         H         H         1.0       0.5436660640847597  0.1559154508303222  0.5102369450771153 1.0000   
         H         H         1.0       0.4595930455022297  0.16546101222836374           0.5741501772797605 1.0000   
         H         H         1.0       0.5192213825458811  0.18909935607889938           0.6053320928171421 1.0000   
         C         C         1.0       0.3335470390030574  0.4098409694608881  0.4603225113454196 1.0000   
         C         C         1.0       0.38621981789307647           0.4187356013152964 0.43534072156435255          1.0000   
         H         H         1.0       0.3087032865548652  0.40195364677971995           0.42138850267952027          1.0000   
         H         H         1.0       0.3039405963216547  0.3731913693407566  0.4918557374358204 1.0000   
         H         H         1.0       0.4045069157832497  0.44704912662024715           0.3958146216319184 1.0000   
         H         H         1.0       0.3710689196091526  0.3812998295624865  0.4193641673809512 1.0000   
         C         C         1.0       0.4750601648032767  0.35225107027647484           0.869753156942598  1.0000   
         C         C         1.0       0.4976439138980464  0.4073198774213815  0.8471463973346597 1.0000   
         H         H         1.0       0.46541590808530514           0.3343668286030888 0.8304635437449974 1.0000   
         H         H         1.0       0.43369715160762273           0.32958935973918163          0.8937803754809739 1.0000   
         H         H         1.0       0.5344212569863276  0.43619288015187513           0.8715125662565042 1.0000   
         H         H         1.0       0.46387063974087844           0.40972973737533414          0.8550452216762373 1.0000   
         C         C         1.0       0.8929015359026643  0.5499056812782157  0.3537802958969589 1.0000   
         C         C         1.0       0.8721604296636303  0.4941275579296054  0.37561927161171677          1.0000   
         H         H         1.0       0.9348369151142337  0.5749323780199617  0.32854812072532136          1.0000   
         H         H         1.0       0.8927407454264017  0.562995637613934   0.3924470787079497 1.0000   
         H         H         1.0       0.9098445448942355  0.4969729719045062  0.38821683919273975          1.0000   
         H         H         1.0       0.8579918740787053  0.471463734126572   0.3424220803304561 1.0000   
         C         C         1.0       0.8170462683243498  0.7371256586599455  0.17759839797789712          1.0000   
         C         C         1.0       0.7532281845587127  0.6967210692342146  0.16854210443885326          1.0000   
         H         H         1.0       0.8283740171310187  0.7751815732656565  0.16012273176547803          1.0000   
         H         H         1.0       0.844112283372352   0.7349222999946233  0.1491787113348071 1.0000   
         H         H         1.0       0.7443630240033536  0.7102258536535494  0.12773828693326217          1.0000   
         H         H         1.0       0.7312628316774845  0.6984200715825455  0.2055660201340318 1.0000   
         C         C         1.0       0.9078280368426137  0.5743585310809846  0.8415818186772992 1.0000   
         C         C         1.0       0.8740517627889367  0.582141784214763   0.8803621223507104 1.0000   
         H         H         1.0       0.9339258359307393  0.6068657557676248  0.8049312653455525 1.0000   
         H         H         1.0       0.87514868649479    0.5444521648026716  0.8175616546427763 1.0000   
         H         H         1.0       0.9038538366162613  0.6079566767688197  0.9093702920874235 1.0000   
         H         H         1.0       0.8671159132644474  0.6091102857315359  0.8529115491872216 1.0000   
         C         C         1.0       0.6767403774598555  0.22051918680288174           0.07770212344698701          1.0000   
         C         C         1.0       0.6749490783859108  0.19022749918368986           0.03283101088554119          1.0000   
         H         H         1.0       0.7173653765262559  0.23917402636839724           0.09877562495860914          1.0000   
         H         H         1.0       0.6481259875126801  0.19305324976009341           0.11728968590669342          1.0000   
         H         H         1.0       0.7221932356020252  0.21096997732911293           0.022600703948448823         1.0000   
         H         H         1.0       0.6557081242595183  0.19591915386538217           0.9921720013206234 1.0000   
         C         C         1.0       0.47807161394204806           0.365152474280533  0.3972535307957097 1.0000   
         C         C         1.0       0.4872956369591977  0.3348155780237954  0.361000899502804  1.0000   
         H         H         1.0       0.5150261273568827  0.38336781239807033           0.4242960387774267 1.0000   
         H         H         1.0       0.4423771773443076  0.33581357242883547           0.4290507934596448 1.0000   
         H         H         1.0       0.44809356103541004           0.31062320210417077          0.33913548435017415          1.0000   
         H         H         1.0       0.4904805758493096  0.30599966714366644           0.38803506125239284          1.0000

