data_0
_chemical_formula_structural 
                                        C6H4C38H24C6H4C38H24C6H4C38H24C6H4C38H24C6H4C38H24C6H4C38H24C6H4C38H24C6H4C38H24C6H4C38H24C6H4C38H24C6H4C38H24C6H4C38H24C2H4C2H4C2H4C2H4C2H4C2H4C2H4C2H4C2H4C2H4C2H4C2H4C2H4C2H4C2H4C2H4C2H4C2H4C2H4C2H4C2H4C2H4C2H4C2H4C2H4C2H4C2H4C2H4C2H4C2H4C2H4C2H4C2H4C2H4C2H4C2H4
_chemical_formula_sum                   'C600 H480'
_cell_length_a                          39.91514093306137
_cell_length_b                          41.123101535090456
_cell_length_c                          30.834521234676746
_cell_angle_alpha                       82.51540439539008
_cell_angle_beta                        92.32597124194243
_cell_angle_gamma                       120.3100775717492
_space_group_name_H-M_alt               'P 1'
_space_group_IT_number                  1
loop_
  _space_group_symop_operation_xyz
         'x, y, z' 
loop_
  _atom_site_type_symbol
  _atom_site_label
  _atom_site_symmetry_multiplicity
  _atom_site_fract_x
  _atom_site_fract_y
  _atom_site_fract_z
  _atom_site_occupancy
         C         C         1.0       0.5359166777977419  0.16990364346254203           0.9889989712807332 1.0000   
         C         C         1.0       0.5295025703467051  0.18686876481344658           0.9516020310238187 1.0000   
         C         C         1.0       0.49878347676917434           0.192754041437457  0.9485174005443514 1.0000   
         C         C         1.0       0.4667629878571346  0.17354576510811393           0.9777975108028802 1.0000   
         C         C         1.0       0.47340536763355906           0.15533082693994507          0.016439640383034294         1.0000   
         C         C         1.0       0.5077223004136505  0.1553617137071441  0.0237665939464485 1.0000   
         H         H         1.0       0.5517421774419549  0.2008482840989611  0.9253024587650044 1.0000   
         H         H         1.0       0.4982185508094066  0.21085367592728718           0.9210533864380938 1.0000   
         H         H         1.0       0.4506761377569109  0.14174029955386938           0.04023503697539224          1.0000   
         H         H         1.0       0.5118103168203003  0.1428567522552518  0.055054644880525125         1.0000   
         C         C         1.0       0.3958844231566889  0.098805173768275   0.9744138388826163 1.0000   
         C         C         1.0       0.39113168873226656           0.13037098505356562          0.9738515246628625 1.0000   
         C         C         1.0       0.352039825567152   0.12228160477517813           0.9775476741348303 1.0000   
         C         C         1.0       0.32064712720974936           0.08548460637084891          0.9822922046711796 1.0000   
         C         C         1.0       0.3264549229373798  0.05406025337209286           0.9794044092279468 1.0000   
         C         C         1.0       0.36492278606647205           0.06241737450078858          0.9801753340117598 1.0000   
         C         C         1.0       0.42652090758465866           0.17245183294451558          0.9651978830607497 1.0000   
         C         C         1.0       0.422541209737771   0.18734764418484925           0.9174823487650166 1.0000   
         C         C         1.0       0.40312612088804994           0.20778152577930273          0.9077247050720955 1.0000   
         C         C         1.0       0.4023442297756086  0.22105566037838933           0.8648637819335977 1.0000   
         C         C         1.0       0.4156632852337089  0.21049250562048183           0.8317543757033155 1.0000   
         C         C         1.0       0.42833105131516075           0.18464692508366595          0.8417140846373286 1.0000   
         C         C         1.0       0.4321154674391178  0.1735180562557058  0.8842069633446054 1.0000   
         C         C         1.0       0.4086600317807755  0.19041810256045036           0.03451247680202713          1.0000   
         C         C         1.0       0.4119988929300555  0.21670489658408446           0.06024661236516932          1.0000   
         C         C         1.0       0.4378941485872889  0.25478621620602815           0.049376893861770674         1.0000   
         C         C         1.0       0.4589316284443235  0.2663445947203789  0.01077027460083535          1.0000   
         C         C         1.0       0.45668444154548704           0.23974344850918833          0.9857300367135267 1.0000   
         C         C         1.0       0.4298090325882557  0.20099930285094772           0.9964312182559708 1.0000   
         C         C         1.0       0.43772548520543375           0.28394920630211856          0.07927217718498103          1.0000   
         C         C         1.0       0.34787843825194936           0.30025338656939143          0.010805856545698322         1.0000   
         C         C         1.0       0.3369349421814295  0.272469174010883   0.04679337962256582          1.0000   
         C         C         1.0       0.36540677913103653           0.26651773589089306          0.06890482693870512          1.0000   
         C         C         1.0       0.40358623747986105           0.2888829042018545 0.05627425857786805          1.0000   
         C         C         1.0       0.41259402095688347           0.31433514907796595          0.019287812265750937         1.0000   
         C         C         1.0       0.3853833697916284  0.32021919701139806           0.9973945255401898 1.0000   
         C         C         1.0       0.4787679974023095  0.32267943915700215           0.07828011714149948          1.0000   
         C         C         1.0       0.5126313383150769  0.3228960461726521  0.08227099878285403          1.0000   
         C         C         1.0       0.548765274575795   0.35484160208465737           0.08358514214264681          1.0000   
         C         C         1.0       0.552799895673934   0.3895598878429682  0.08114936996036183          1.0000   
         C         C         1.0       0.5176875358501194  0.3909265674993949  0.08047580273464959          1.0000   
         C         C         1.0       0.4815243219090787  0.35872318216617927           0.08022997792725496          1.0000   
         C         C         1.0       0.41293434832278003           0.27760101379305385          0.15675564578958584          1.0000   
         C         C         1.0       0.40668399352980633           0.2614449134481052 0.2001601468371828 1.0000   
         C         C         1.0       0.4270506380741052  0.2445043444729491  0.21838139039299673          1.0000   
         C         C         1.0       0.4490925267898216  0.2381922718659837  0.19184085990254163          1.0000   
         C         C         1.0       0.45228165540565807           0.24901874365252977          0.14853827511440656          1.0000   
         C         C         1.0       0.4334511843733094  0.269201358496395   0.12961662909989494          1.0000   
         H         H         1.0       0.4227956195895648  0.10114409285467454           0.9658037759748781 1.0000   
         H         H         1.0       0.3472812232049951  0.14477529823040436           0.9809914397777932 1.0000   
         H         H         1.0       0.2894568402282194  0.07671942131381161           0.9862473285414148 1.0000   
         H         H         1.0       0.36997332879129513           0.038671664498276526         0.9847838220979857 1.0000   
         H         H         1.0       0.39317796575882097           0.21729766840564027          0.9324497774839704 1.0000   
         H         H         1.0       0.3966204741708617  0.24336654845375852           0.8575373557036412 1.0000   
         H         H         1.0       0.43051368826248754           0.17091474908418938          0.8164971687075526 1.0000   
         H         H         1.0       0.44202984913810167           0.15288598791303384          0.8897907036707104 1.0000   
         H         H         1.0       0.38934849461428417           0.16053507532043315          0.04753207009646974          1.0000   
         H         H         1.0       0.3897479002871886  0.20548019274874293           0.08657810341984651          1.0000   
         H         H         1.0       0.47827207388299453           0.2966208330419772 0.9996524227807657 1.0000   
         H         H         1.0       0.4739611801142093  0.2493452222164181  0.9582147958529165 1.0000   
         H         H         1.0       0.3065707938309883  0.2570158557603036  0.05082279993682034          1.0000   
         H         H         1.0       0.3545136703628525  0.24106811389119603           0.09252942417075036          1.0000   
         H         H         1.0       0.4419261857495065  0.3307848901254722  0.0048993231243261715        1.0000   
         H         H         1.0       0.3946834342209892  0.3415686484995079  0.9686904563475615 1.0000   
         H         H         1.0       0.5102275808927818  0.2959684063278258  0.08263310930412261          1.0000   
         H         H         1.0       0.5743764946928828  0.3535567266026378  0.08595562088108372          1.0000   
         H         H         1.0       0.518152436499489   0.41804068338497125           0.07553040401824399          1.0000   
         H         H         1.0       0.45490020396333763           0.36204189330864517          0.07829238248284125          1.0000   
         H         H         1.0       0.3993457181027235  0.29326885942266395           0.14519724144478283          1.0000   
         H         H         1.0       0.3900658531713324  0.2662015532374119  0.22319735051618736          1.0000   
         H         H         1.0       0.4667768534344501  0.22682348515357137           0.20595807110976264          1.0000   
         H         H         1.0       0.4710951561181278  0.24424066860800756           0.1281749479996085 1.0000   
         C         C         1.0       0.5508766491916183  0.18671117871230447           0.47729426622765814          1.0000   
         C         C         1.0       0.5419861276486521  0.20733493626694122           0.4448587880869743 1.0000   
         C         C         1.0       0.5052781774493471  0.1998210845245219  0.4384750551429638 1.0000   
         C         C         1.0       0.47450767802131893           0.17248644718721534          0.4650099503011765 1.0000   
         C         C         1.0       0.4852185185466921  0.155973554402726   0.5032731535600174 1.0000   
         C         C         1.0       0.5218290880015996  0.1620442664037711  0.5091716749964982 1.0000   
         H         H         1.0       0.5648561470466767  0.22752199483690402           0.422223143917715  1.0000   
         H         H         1.0       0.4990555202040466  0.21602349450457542           0.41042117943249024          1.0000   
         H         H         1.0       0.4623261233657772  0.1346996531386971  0.5286266625758616 1.0000   
         H         H         1.0       0.5273256319402402  0.14630906234145338           0.5361943164932487 1.0000   
         C         C         1.0       0.4090545537019478  0.08955060341751714           0.47099494796005204          1.0000   
         C         C         1.0       0.39866054628141373           0.11683157492990431          0.47110379011160286          1.0000   
         C         C         1.0       0.3596390220531298  0.1059392928787691  0.47898659806069377          1.0000   
         C         C         1.0       0.33295057677220474           0.06842924572882193          0.4890995382921578 1.0000   
         C         C         1.0       0.3429047200688102  0.04084998455530875           0.4908930555037442 1.0000   
         C         C         1.0       0.3816003854612112  0.05197151460721329           0.4818093642479046 1.0000   
         C         C         1.0       0.42973967109222516           0.16122339280657405          0.4583516066457037 1.0000   
         C         C         1.0       0.41656298526279956           0.16521679082761523          0.41040236811517594          1.0000   
         C         C         1.0       0.39452932163053095           0.18267385399252367          0.39968415391488105          1.0000   
         C         C         1.0       0.38447428736068656           0.18861623389069282          0.35811914035149195          1.0000   
         C         C         1.0       0.3977012264805468  0.180388880234715   0.3233422437162208 1.0000   
         C         C         1.0       0.4173344658677808  0.16124774756564947           0.3311610639852707 1.0000   
         C         C         1.0       0.42552851838504213           0.1523573696171028 0.3740479649005786 1.0000   
         C         C         1.0       0.41211008442691766           0.17849909464892472          0.5295965975108995 1.0000   
         C         C         1.0       0.41063602604581767           0.20435640600057073          0.5525689245465757 1.0000   
         C         C         1.0       0.43282072202152577           0.24299658478320293          0.5397764754695904 1.0000   
         C         C         1.0       0.4523090064299875  0.254765257672315   0.49934441086907705          1.0000   
         C         C         1.0       0.44861387052716417           0.22776364635428517          0.4738077776151289 1.0000   
         C         C         1.0       0.4271980590278229  0.18899033856083494           0.4883028312745087 1.0000   
         C         C         1.0       0.4339520852486575  0.2728569389410935  0.5676293965744055 1.0000   
         C         C         1.0       0.3434882859729501  0.2874895725440536  0.49116433388384834          1.0000   
         C         C         1.0       0.3353973825895713  0.25267655242596276           0.5141128574712284 1.0000   
         C         C         1.0       0.36340910884955413           0.24951369630910208          0.5388890025047705 1.0000   
         C         C         1.0       0.4014414021895042  0.2797839536960829  0.5402029240168728 1.0000   
         C         C         1.0       0.4109745659802422  0.3111588474143597  0.5090704142619757 1.0000   
         C         C         1.0       0.38227222936463856           0.3151319517669022 0.4852213833870927 1.0000   
         C         C         1.0       0.47727677640640376           0.3092430917063117 0.5705783497437025 1.0000   
         C         C         1.0       0.5089535084605042  0.3056293750522149  0.5692094287490358 1.0000   
         C         C         1.0       0.5444262972465271  0.3338492587456046  0.5802687928297828 1.0000   
         C         C         1.0       0.5490149170743412  0.3689920472730512  0.5850607516408203 1.0000   
         C         C         1.0       0.5167690599828334  0.3738242606820298  0.5825750899888787 1.0000   
         C         C         1.0       0.48219258008686317           0.3434891101771525 0.5770468548003524 1.0000   
         C         C         1.0       0.3962772073666466  0.26506712249880954           0.6406400534434418 1.0000   
         C         C         1.0       0.38389435002533684           0.2492237113477797 0.6830150758379772 1.0000   
         C         C         1.0       0.4001667285559107  0.22766870089491842           0.7061051501982193 1.0000   
         C         C         1.0       0.42726835166860644           0.22339530685516404          0.6838276243724379 1.0000   
         C         C         1.0       0.43832185962423376           0.23991716905870075          0.6406713557070185 1.0000   
         C         C         1.0       0.42307709786795994           0.26024560273960273          0.6182529572361326 1.0000   
         H         H         1.0       0.4384448053964076  0.0949149462799149  0.45900236399373967          1.0000   
         H         H         1.0       0.35001904335979045           0.1265347369072881 0.47511188063307525          1.0000   
         H         H         1.0       0.30314135295579375           0.05877937543582214          0.4939302377785789 1.0000   
         H         H         1.0       0.3881595749725631  0.029970071589043638         0.48212761915732866          1.0000   
         H         H         1.0       0.38620498371499035           0.1927896321225338 0.4236880677246323 1.0000   
         H         H         1.0       0.36563102102931194           0.20100670500032608          0.3522495143354157 1.0000   
         H         H         1.0       0.42405942864338925           0.1493999346259439 0.3065620424559331 1.0000   
         H         H         1.0       0.44049176772944837           0.1376016241890683 0.3779093663886416 1.0000   
         H         H         1.0       0.3978633986757147  0.1503729542479111  0.5462190658886551 1.0000   
         H         H         1.0       0.39536829793573003           0.1925501135509368 0.5860154927433782 1.0000   
         H         H         1.0       0.469343969871654   0.28536048623546134           0.4861597079668905 1.0000   
         H         H         1.0       0.4588510268146845  0.23568727426466957           0.4392386658075819 1.0000   
         H         H         1.0       0.3039356552785901  0.22883972642622274           0.5156741954046452 1.0000   
         H         H         1.0       0.35704467234586623           0.22095197691176846          0.5564654227299713 1.0000   
         H         H         1.0       0.44152318683641645           0.3349516224372913 0.5056348461149934 1.0000   
         H         H         1.0       0.3950434342499046  0.34178366322820847           0.4599729617126453 1.0000   
         H         H         1.0       0.5063925128285395  0.2794674427741195  0.5654500566817071 1.0000   
         H         H         1.0       0.5670916101861083  0.325999647692996   0.5850290489994961 1.0000   
         H         H         1.0       0.5192419099512232  0.4007477208129225  0.5778583709300381 1.0000   
         H         H         1.0       0.45931796326917307           0.3475252625647747 0.5848848437891709 1.0000   
         H         H         1.0       0.38207255981704774           0.27896056611982045          0.6201839634610178 1.0000   
         H         H         1.0       0.3623496028406935  0.25127336714974285           0.7003358758858291 1.0000   
         H         H         1.0       0.44218484954289017           0.21025558404583444          0.6999492427667214 1.0000   
         H         H         1.0       0.4603730307185389  0.2371906296189114  0.6266271689462597 1.0000   
         C         C         1.0       0.37753029797321924           0.8452743784333611 0.005892320826578316         1.0000   
         C         C         1.0       0.34800142729450206           0.8145270802162828 0.03172756323269204          1.0000   
         C         C         1.0       0.31355363156761124           0.813553728407681  0.03804218374121153          1.0000   
         C         C         1.0       0.30932418662184097           0.8444387810316194 0.022620889763365244         1.0000   
         C         C         1.0       0.3381811374431979  0.8736300731062446  0.993671544759015  1.0000   
         C         C         1.0       0.3732896846995914  0.874762210286888   0.9899371159965544 1.0000   
         H         H         1.0       0.3513641549741211  0.7915776007084058  0.043916832730800846         1.0000   
         H         H         1.0       0.29069712122042246           0.7900710827386861 0.05885200845699438          1.0000   
         H         H         1.0       0.3355092890908688  0.8970326378919463  0.9772942503749709 1.0000   
         H         H         1.0       0.39655194080992207           0.9006498386735307 0.9719537332894069 1.0000   
         C         C         1.0       0.30784421381436294           0.9149070343865761 0.048520495683295306         1.0000   
         C         C         1.0       0.2748708736952913  0.8850891620946966  0.035783224908924854         1.0000   
         C         C         1.0       0.24304969697260168           0.891053954210047  0.02482265504246578          1.0000   
         C         C         1.0       0.24619968298474865           0.9255231063693183 0.02698189187573964          1.0000   
         C         C         1.0       0.2808844144237733  0.9554795695828222  0.037822667463953824         1.0000   
         C         C         1.0       0.3102459504144024  0.9495424446183216  0.0493073546164697 1.0000   
         C         C         1.0       0.27174948561791856           0.8452161304616053 0.04096178532617317          1.0000   
         C         C         1.0       0.26141683934629734           0.8315015062486313 0.09298922094362297          1.0000   
         C         C         1.0       0.2240546862514864  0.8236593947004853  0.10546567674533767          1.0000   
         C         C         1.0       0.21049012489199556           0.8102837093665095 0.14845534046595754          1.0000   
         C         C         1.0       0.2345691367917609  0.8052180902947654  0.17807515667734733          1.0000   
         C         C         1.0       0.27134902355798757           0.8144114863477195 0.16598993098964582          1.0000   
         C         C         1.0       0.2857139760499199  0.829135919623125   0.12391043121981755          1.0000   
         C         C         1.0       0.24096365119900431           0.8278323458329429 0.9656007455039682 1.0000   
         C         C         1.0       0.21450961610895583           0.8028994749569669 0.9387682720381044 1.0000   
         C         C         1.0       0.18919024978154236           0.7661201880573696 0.9559775732584576 1.0000   
         C         C         1.0       0.18862303062942065           0.75593414550169   0.0013921584441645152        1.0000   
         C         C         1.0       0.21461248453194737           0.7793564601546219 0.02757917604076771          1.0000   
         C         C         1.0       0.2418765067896384  0.8174820135667378  0.010446184179159657         1.0000   
         C         C         1.0       0.15503009767292103           0.7386139699597526 0.9266932675640902 1.0000   
         C         C         1.0       0.05887024418826566           0.7502069119443976 0.9715784213222353 1.0000   
         C         C         1.0       0.08154320252120634           0.7725164905153424 0.9358546684266883 1.0000   
         C         C         1.0       0.11286501494153622           0.7705749689257797 0.9237279169441394 1.0000   
         C         C         1.0       0.1187430755099909  0.7420392597298704  0.9417897021986401 1.0000   
         C         C         1.0       0.09682751235809062           0.7199359331776405 0.9766731946934073 1.0000   
         C         C         1.0       0.06645713703062765           0.7220331847814833 0.9922461619955746 1.0000   
         C         C         1.0       0.1522608440163438  0.6972271532477208  0.9354691714901253 1.0000   
         C         C         1.0       0.18391395831307786           0.6930864143388451 0.9476772654614432 1.0000   
         C         C         1.0       0.17835818845882861           0.658372476222164  0.9593799042107637 1.0000   
         C         C         1.0       0.14133577168834516           0.6241694399985617 0.9618415202380965 1.0000   
         C         C         1.0       0.11032829667276059           0.6281536977361579 0.9478435944944906 1.0000   
         C         C         1.0       0.11682102736827034           0.6635064467225238 0.9323217583910868 1.0000   
         C         C         1.0       0.1307737199736261  0.7367361429874419  0.8461468304940537 1.0000   
         C         C         1.0       0.1354545147874769  0.7433593785090444  0.8017477316149539 1.0000   
         C         C         1.0       0.1707988353822254  0.754933489653052   0.7822209180761875 1.0000   
         C         C         1.0       0.2021400045477248  0.7616274265184896  0.8084649590173006 1.0000   
         C         C         1.0       0.1969590316159363  0.7556989253091896  0.8540561958444212 1.0000   
         C         C         1.0       0.1621243069700232  0.7454438391864739  0.8737310890982583 1.0000   
         H         H         1.0       0.33157861715976583           0.9123649324294074 0.06487514912462224          1.0000   
         H         H         1.0       0.2148509074717037  0.8668712635760903  0.01670627647210083          1.0000   
         H         H         1.0       0.2204452924687937  0.9272356262649839  0.01935338861611478          1.0000   
         H         H         1.0       0.3386479104249892  0.972306773834523   0.05837011606885892          1.0000   
         H         H         1.0       0.20694961210271723           0.8310059180650188 0.08248661874636151          1.0000   
         H         H         1.0       0.18007402577390544           0.801999095906148  0.15835301013892283          1.0000   
         H         H         1.0       0.2895714160277542  0.8126071415859634  0.19146729466071485          1.0000   
         H         H         1.0       0.3163117522728589  0.8382097084918089  0.12134999851479476          1.0000   
         H         H         1.0       0.2636647832575367  0.8572554105586538  0.9506363325834368 1.0000   
         H         H         1.0       0.2156350915648866  0.8127957661045562  0.9019598164908904 1.0000   
         H         H         1.0       0.16938702539979164           0.7268801063299385 0.016686989716569345         1.0000   
         H         H         1.0       0.21435675282398625           0.7696350978590207 0.06141974821396573          1.0000   
         H         H         1.0       0.08081499409151148           0.7973532525753073 0.9216409392574191 1.0000   
         H         H         1.0       0.13413403813795544           0.7931029012684536 0.9005945078414452 1.0000   
         H         H         1.0       0.10389154692947043           0.6994307580426354 0.9926561763984314 1.0000   
         H         H         1.0       0.04759501311093011           0.7010834875093498 0.020031301242461715         1.0000   
         H         H         1.0       0.21242576336465605           0.7182168708339332 0.9493572075525087 1.0000   
         H         H         1.0       0.20429578482975008           0.6565689107879777 0.9676832721219268 1.0000   
         H         H         1.0       0.07968239114797063           0.6058758696767406 0.9491790690326037 1.0000   
         H         H         1.0       0.09188815533925823           0.6659808409898452 0.9224466203819777 1.0000   
         H         H         1.0       0.10131122353657512           0.7251421928468968 0.8588110086983028 1.0000   
         H         H         1.0       0.11286723121099249           0.7412692893898418 0.7824120805813434 1.0000   
         H         H         1.0       0.2277766009531767  0.768630261696419   0.7926092622271533 1.0000   
         H         H         1.0       0.22327383534968492           0.762140017310956  0.8707879908656891 1.0000   
         C         C         1.0       0.33935649717995864           0.7861873311545698 0.517472368093976  1.0000   
         C         C         1.0       0.31826702467356366           0.7741939087614182 0.5556284329512626 1.0000   
         C         C         1.0       0.28942161309583997           0.783901751485995  0.5604428281136212 1.0000   
         C         C         1.0       0.28058267247120794           0.8037400988323965 0.5266986020020441 1.0000   
         C         C         1.0       0.29892632928209245           0.8107622869998282 0.4863273452660612 1.0000   
         C         C         1.0       0.3293252267303377  0.8029761020080647  0.48324986936143244          1.0000   
         H         H         1.0       0.3253636947663375  0.7594924960948763  0.5850296648246611 1.0000   
         H         H         1.0       0.27504041441421756           0.7747761155818821 0.5937212506940035 1.0000   
         H         H         1.0       0.2895355124837279  0.8228837896697262  0.45705056848733205          1.0000   
         H         H         1.0       0.3492228197577519  0.8147058091993342  0.45466806995920667          1.0000   
         C         C         1.0       0.30487375231686475           0.8864105140313286 0.509836292621187  1.0000   
         C         C         1.0       0.26540411229745126           0.8611938795749269 0.5180583898749725 1.0000   
         C         C         1.0       0.24044534697810632           0.8747737533122474 0.5084346242904053 1.0000   
         C         C         1.0       0.2549655366372048  0.9130447257669567  0.4894285524253154 1.0000   
         C         C         1.0       0.2932035124454985  0.9364550616242938  0.4816221351841594 1.0000   
         C         C         1.0       0.3171278991906134  0.9233251899367602  0.49451041627819026          1.0000   
         C         C         1.0       0.2504202352184036  0.8169710919584985  0.5325825503617673 1.0000   
         C         C         1.0       0.23548404746128537           0.8134275658931758 0.5813496665993141 1.0000   
         C         C         1.0       0.19628011290774164           0.7997407242096282 0.5921278176402575 1.0000   
         C         C         1.0       0.1849546238902533  0.7976686194662527  0.6351299903826549 1.0000   
         C         C         1.0       0.21190800231388313           0.8101998316014827 0.6675309300492103 1.0000   
         C         C         1.0       0.2504795024243104  0.822889465145219   0.6569836986805159 1.0000   
         C         C         1.0       0.2623160186318507  0.8271150953339264  0.6137995880227061 1.0000   
         C         C         1.0       0.21157295982642058           0.8010418678597596 0.45974439143958934          1.0000   
         C         C         1.0       0.18698859431078865           0.7749741465773924 0.43376816201059   1.0000   
         C         C         1.0       0.1664497395773638  0.735053225763783   0.4473545796839781 1.0000   
         C         C         1.0       0.17055801134396395           0.7258739634900399 0.49203334711370666          1.0000   
         C         C         1.0       0.19555441537647122           0.7525465981541661 0.5170419006338113 1.0000   
         C         C         1.0       0.216966935102095   0.790470881281067   0.5011822458608411 1.0000   
         C         C         1.0       0.13819684676363775           0.707116003871504  0.4164115924910464 1.0000   
         C         C         1.0       0.04771087484581169           0.7294661694443342 0.4522111975520306 1.0000   
         C         C         1.0       0.06480003522969487           0.7429613953045734 0.41182711804369954          1.0000   
         C         C         1.0       0.09045577803064758           0.7338942675831396 0.3970164209943843 1.0000   
         C         C         1.0       0.10031243134600462           0.7095593121111616 0.4254594941152983 1.0000   
         C         C         1.0       0.07922402485062931           0.6927868342023847 0.46535544482584434          1.0000   
         C         C         1.0       0.05260008038209254           0.7025682006703178 0.4773338151063778 1.0000   
         C         C         1.0       0.1314073036881873  0.6656920702302817  0.425920778104991  1.0000   
         C         C         1.0       0.15881745770983394           0.6562277782676924 0.4435935622022467 1.0000   
         C         C         1.0       0.15116907195659046           0.6202539540695683 0.45620022490927103          1.0000   
         C         C         1.0       0.11602411041093251           0.5921814329439047 0.4444619069436542 1.0000   
         C         C         1.0       0.08800102734028567           0.5982030655341545 0.4280193141546294 1.0000   
         C         C         1.0       0.09557686177163949           0.6349389820313519 0.42089822217858075          1.0000   
         C         C         1.0       0.136235662437848   0.7137247567976653  0.3303908988753128 1.0000   
         C         C         1.0       0.1537446340377388  0.721279670100868   0.28930422786176974          1.0000   
         C         C         1.0       0.19357362113455598           0.7354994536966951 0.2843857353756107 1.0000   
         C         C         1.0       0.21436890924824936           0.7392624083247167 0.32168909638399756          1.0000   
         C         C         1.0       0.19636395849432575           0.7298053738772072 0.3629103541559651 1.0000   
         C         C         1.0       0.15683659139270376           0.7169494530375027 0.36747324159215883          1.0000   
         H         H         1.0       0.3286657106051438  0.8801230778743601  0.5162283282462384 1.0000   
         H         H         1.0       0.20948569464162042           0.8568922136068431 0.5153507886476997 1.0000   
         H         H         1.0       0.23476798466246354           0.922620273093187  0.476909351988361  1.0000   
         H         H         1.0       0.34817097143751347           0.9459589069802203 0.49077808654256183          1.0000   
         H         H         1.0       0.17544829752215801           0.7945262551087139 0.5657035116035776 1.0000   
         H         H         1.0       0.15493033108116885           0.7839122398098478 0.6462399443558494 1.0000   
         H         H         1.0       0.27122463443218103           0.8312240237562879 0.6829390975296177 1.0000   
         H         H         1.0       0.29094518930594626           0.8337412640459749 0.6058496187406475 1.0000   
         H         H         1.0       0.2277259534719557  0.8283768591417133  0.4411841408515341 1.0000   
         H         H         1.0       0.18247253382108303           0.7847290556262392 0.4010328633623224 1.0000   
         H         H         1.0       0.15436319864316977           0.6987986851354793 0.5110094370809191 1.0000   
         H         H         1.0       0.20000085168069706           0.7444340348885895 0.5502005981815615 1.0000   
         H         H         1.0       0.057742725283488415          0.7616147482851219 0.3906025151581078 1.0000   
         H         H         1.0       0.10578694234611011           0.7458263201074153 0.3650305724524305 1.0000   
         H         H         1.0       0.08506397411766389           0.6725942639863316 0.4860404547598709 1.0000   
         H         H         1.0       0.0402800881652564  0.6906693953990017  0.5097559371907504 1.0000   
         H         H         1.0       0.18678844655984553           0.6791497927746356 0.4498750841290281 1.0000   
         H         H         1.0       0.17140200155099122           0.6139014870530218 0.4754984728576805 1.0000   
         H         H         1.0       0.061318309132791175          0.5753543859360841 0.416259650443055  1.0000   
         H         H         1.0       0.07030352504791577           0.6388443010750943 0.4121417882942602 1.0000   
         H         H         1.0       0.10473953243621338           0.7028391518865308 0.33396146010810895          1.0000   
         H         H         1.0       0.13753946151963756           0.7166797628375916 0.2600649106779588 1.0000   
         H         H         1.0       0.24572592360641024           0.7503360920670639 0.31894045541984894          1.0000   
         H         H         1.0       0.21376339960271332           0.7313720396912462 0.3894606656709012 1.0000   
         C         C         1.0       0.9647743876670872  0.711036963062026   0.9766750307226492 1.0000   
         C         C         1.0       0.94195487891921    0.7012753391287718  0.9410995431195731 1.0000   
         C         C         1.0       0.9117096399243613  0.6660008810195176  0.9411615100961279 1.0000   
         C         C         1.0       0.9043512063408142  0.6381773290284443  0.9744646042106171 1.0000   
         C         C         1.0       0.9254702410762389  0.6460867839116063  0.012847342868654587         1.0000   
         C         C         1.0       0.9563295620213885  0.683280889041601   0.012443165239554941         1.0000   
         H         H         1.0       0.9491934077437847  0.7216361940783356  0.9126014820268774 1.0000   
         H         H         1.0       0.8931231587392887  0.6597103922148556  0.9133503449039156 1.0000   
         H         H         1.0       0.9157374851152598  0.62653148184979    0.04079395589431243          1.0000   
         H         H         1.0       0.9722689100103717  0.6907072496769984  0.04055084436529044          1.0000   
         C         C         1.0       0.91356273072282    0.5664050915142205  0.9888079159371665 1.0000   
         C         C         1.0       0.876849754960149   0.5601916212288541  0.9902274841359028 1.0000   
         C         C         1.0       0.8473161005342251  0.5226632026074354  0.0003443233786588381        1.0000   
         C         C         1.0       0.8527062324141842  0.49273853279138113           0.01197596322304211          1.0000   
         C         C         1.0       0.8888528137499448  0.49808213025813075           0.012039159253582097         1.0000   
         C         C         1.0       0.9195484414704315  0.5353917906422246  0.0011438501438769677        1.0000   
         C         C         1.0       0.8683282317530516  0.5940299781589224  0.9721414318439554 1.0000   
         C         C         1.0       0.8530014249584981  0.5822144260737612  0.9245137444580754 1.0000   
         C         C         1.0       0.8148971112777204  0.5586716965904676  0.9167630713678249 1.0000   
         C         C         1.0       0.8018171311769249  0.5515982169751344  0.8746651740208315 1.0000   
         C         C         1.0       0.828850625348151   0.5718209320513162  0.8380415117217018 1.0000   
         C         C         1.0       0.8674499936282344  0.5940868601450857  0.8468826943620648 1.0000   
         C         C         1.0       0.8784824085983289  0.596633629093006   0.8889174428002772 1.0000   
         C         C         1.0       0.8346099270253623  0.5814944927461017  0.05166351498454567          1.0000   
         C         C         1.0       0.8067993622634039  0.5817740199876456  0.07779684764626195          1.0000   
         C         C         1.0       0.7858313419688117  0.5991732783236345  0.05980788646954835          1.0000   
         C         C         1.0       0.7895893641055736  0.6108114501491795  0.01556318884353481          1.0000   
         C         C         1.0       0.8177496115382571  0.6099604224809897  0.9908284488707192 1.0000   
         C         C         1.0       0.8378899276189378  0.5932097292061074  0.00609424246715669          1.0000   
         C         C         1.0       0.7512794113537051  0.5960462227141928  0.08665072669174352          1.0000   
         C         C         1.0       0.6607733444912334  0.4820330170830661  0.05709069552009114          1.0000   
         C         C         1.0       0.6854445848666195  0.4865138741337962  0.09166214358220998          1.0000   
         C         C         1.0       0.7133250291885173  0.5223091432399565  0.10267347891594118          1.0000   
         C         C         1.0       0.7183903996344586  0.5548293752993128  0.07682384194124205          1.0000   
         C         C         1.0       0.6953960637332753  0.5497138827205063  0.04142200924254072          1.0000   
         C         C         1.0       0.6679807166952069  0.5146732189512649  0.031610468911934544         1.0000   
         C         C         1.0       0.7413716496229139  0.6275524204539914  0.07497645243654628          1.0000   
         C         C         1.0       0.7694555982122924  0.6660240560373054  0.06561629157122886          1.0000   
         C         C         1.0       0.7588184695619251  0.6932247629550069  0.06305224931196832          1.0000   
         C         C         1.0       0.7206987826804692  0.6832772166929073  0.06961685382244796          1.0000   
         C         C         1.0       0.6947348826002927  0.646976528069671   0.07935531642642867          1.0000   
         C         C         1.0       0.704038968650853   0.6183963773624612  0.08126101590425769          1.0000   
         C         C         1.0       0.7338488922997466  0.5813771657983464  0.1710104196721688 1.0000   
         C         C         1.0       0.7426838329089505  0.5796246555338747  0.2133944876908599 1.0000   
         C         C         1.0       0.7793422374228057  0.6015337718942041  0.22840561009395424          1.0000   
         C         C         1.0       0.8075704530231946  0.6232440571077825  0.19738163436985556          1.0000   
         C         C         1.0       0.8005204190856996  0.6244015939648754  0.15199132512443964          1.0000   
         C         C         1.0       0.76271192230335    0.6019636381688096  0.13797825942000144          1.0000   
         H         H         1.0       0.9383664729950917  0.5947159557462428  0.9830562655778101 1.0000   
         H         H         1.0       0.8180058363508746  0.516834583412216   0.9977035384914535 1.0000   
         H         H         1.0       0.827095926316304   0.465484133836813   0.024372497165392512         1.0000   
         H         H         1.0       0.9481744457412357  0.5405554570739622  0.0028464886520418453        1.0000   
         H         H         1.0       0.7950181805691098  0.5455124170352745  0.9437983361664845 1.0000   
         H         H         1.0       0.7713664923826185  0.5352974692077229  0.869058263935267  1.0000   
         H         H         1.0       0.8908481089419348  0.6084843782284458  0.8245377205080209 1.0000   
         H         H         1.0       0.9095112166475738  0.6145192469684713  0.8934772575302896 1.0000   
         H         H         1.0       0.85502597070505    0.571281580907272   0.06329943900272678          1.0000   
         H         H         1.0       0.8016630315518658  0.5675612604858041  0.10838709309712816          1.0000   
         H         H         1.0       0.7730902420470113  0.6214128166318023  0.9984401429905473 1.0000   
         H         H         1.0       0.8174486789603352  0.6169684855159848  0.9556863311741604 1.0000   
         H         H         1.0       0.6823001595044588  0.4616015663700326  0.11116619497915343          1.0000   
         H         H         1.0       0.7343996565519771  0.5237942647654348  0.12601988083469812          1.0000   
         H         H         1.0       0.7010467522983329  0.575522464498395   0.02144248341970377          1.0000   
         H         H         1.0       0.6528453049731123  0.5129743913431176  0.001570358887727008         1.0000   
         H         H         1.0       0.7996303205838396  0.671934788183012   0.06279382785055394          1.0000   
         H         H         1.0       0.7805208295309082  0.721908423582419   0.04713222973137713          1.0000   
         H         H         1.0       0.6652139490348028  0.6404787437905435  0.07699661884877215          1.0000   
         H         H         1.0       0.6814274600622691  0.5890981595971282  0.09436449025724447          1.0000   
         H         H         1.0       0.7037912073532675  0.5629744586487169  0.16277080129785976          1.0000   
         H         H         1.0       0.7229706006008068  0.5595085668735961  0.23740280330888447          1.0000   
         H         H         1.0       0.8360264966685754  0.63859745461422    0.21150099646184004          1.0000   
         H         H         1.0       0.8205219946894078  0.6448803816693     0.1275351627618758 1.0000   
         C         C         1.0       0.9549069610315832  0.679857303748563   0.4965840226942466 1.0000   
         C         C         1.0       0.9336614787163354  0.6817708832806816  0.4596031502906129 1.0000   
         C         C         1.0       0.9015692188759857  0.6499874057686074  0.44925964110375977          1.0000   
         C         C         1.0       0.8902615620836053  0.6141936142091141  0.47459640286985477          1.0000   
         C         C         1.0       0.9124446964333893  0.6147530893948036  0.5119006650198801 1.0000   
         C         C         1.0       0.9466867208105217  0.6467320381258718  0.5194384413538691 1.0000   
         H         H         1.0       0.9431430506125849  0.7091867109045992  0.44029999951752885          1.0000   
         H         H         1.0       0.8822820675367181  0.6510237084148078  0.4223985001685286 1.0000   
         H         H         1.0       0.9067256115838164  0.588147529036546   0.53239487458649   1.0000   
         H         H         1.0       0.9607794903781611  0.644208962628848   0.5505915349506206 1.0000   
         C         C         1.0       0.8884516606919394  0.5391646015483428  0.46977506585110546          1.0000   
         C         C         1.0       0.853261712254793   0.5373454176461243  0.47625810971391047          1.0000   
         C         C         1.0       0.8209122164192425  0.5030654500586996  0.48851819228657123          1.0000   
         C         C         1.0       0.8248292281589144  0.47043812653324424           0.5000290105444869 1.0000   
         C         C         1.0       0.8609526944985945  0.4741860363777919  0.4966465520133105 1.0000   
         C         C         1.0       0.8917216396278047  0.507927975029142   0.4799779210764244 1.0000   
         C         C         1.0       0.8498957051997962  0.5759471992951607  0.4670367200205637 1.0000   
         C         C         1.0       0.8350168790394192  0.5714633181684524  0.4194855657403292 1.0000   
         C         C         1.0       0.798032201485503   0.5521054240344475  0.4075119503697539 1.0000   
         C         C         1.0       0.7881583172419081  0.5526323937004508  0.363513941860388  1.0000   
         C         C         1.0       0.8173217115532565  0.5692500828591094  0.3325344427048011 1.0000   
         C         C         1.0       0.8557486524331936  0.5876878116639863  0.3435504731463965 1.0000   
         C         C         1.0       0.8648462609959561  0.5886612511549832  0.38650412838722564          1.0000   
         C         C         1.0       0.8196966828844369  0.5653020964066132  0.5439967636243279 1.0000   
         C         C         1.0       0.7934396486474022  0.5640937807951489  0.5724220777679782 1.0000   
         C         C         1.0       0.7700145143502952  0.5790342260601571  0.5612313742343071 1.0000   
         C         C         1.0       0.7728403758851479  0.593130346350264   0.5170058772987537 1.0000   
         C         C         1.0       0.801341442389113   0.5964315386171123  0.4869222991340868 1.0000   
         C         C         1.0       0.8219397587311419  0.5779852788309915  0.499943227329889  1.0000   
         C         C         1.0       0.7394017307027658  0.576840489324939   0.5950545248698191 1.0000   
         C         C         1.0       0.645651853821176   0.46741384934795954           0.566267577355683  1.0000   
         C         C         1.0       0.6704684671290924  0.4688543415907422  0.5967435002671566 1.0000   
         C         C         1.0       0.700342184337131   0.5035567519704375  0.6062219750667572 1.0000   
         C         C         1.0       0.7042454684684164  0.537660671089232   0.5864474549379898 1.0000   
         C         C         1.0       0.6763740612643387  0.5338096663200873  0.5558552721224632 1.0000   
         C         C         1.0       0.6474349201824459  0.4993593079731334  0.5449525766011049 1.0000   
         C         C         1.0       0.7298329083400722  0.6103199427794476  0.5898551509716553 1.0000   
         C         C         1.0       0.754920398149971   0.6463789210425176  0.5676132995968319 1.0000   
         C         C         1.0       0.7412278438562452  0.6707892507106148  0.5587816539432419 1.0000   
         C         C         1.0       0.7032602449335584  0.6603184661371205  0.5703209445463671 1.0000   
         C         C         1.0       0.6816278780485631  0.6285486711499089  0.5991702190022906 1.0000   
         C         C         1.0       0.6966779191358405  0.6048852071779206  0.6105283319395716 1.0000   
         C         C         1.0       0.7318203869817989  0.5571510491301925  0.6803412160528043 1.0000   
         C         C         1.0       0.7458478078637675  0.563210147896334   0.7228440994918915 1.0000   
         C         C         1.0       0.7832734992560361  0.5896791911412064  0.7297196061753491 1.0000   
         C         C         1.0       0.8052802173872257  0.6124310633525348  0.6917383234285847 1.0000   
         C         C         1.0       0.7917969180586214  0.6085082173776284  0.6498712630988147 1.0000   
         C         C         1.0       0.7543395564128059  0.578163396967486   0.6430598964128652 1.0000   
         H         H         1.0       0.9132440638676862  0.5666610735827966  0.4592518087143365 1.0000   
         H         H         1.0       0.792809312412873   0.5022787464914403  0.4936367512514834 1.0000   
         H         H         1.0       0.7994700577048487  0.44482974060802055           0.5122339734184393 1.0000   
         H         H         1.0       0.9181495940978135  0.507681435138545   0.47328618470446215          1.0000   
         H         H         1.0       0.7752039282610438  0.5382507179126136  0.42967716510582554          1.0000   
         H         H         1.0       0.7588973900207451  0.5398915830194173  0.3565263046946533 1.0000   
         H         H         1.0       0.878298965729529   0.6052934719174643  0.320801096564316  1.0000   
         H         H         1.0       0.8955812970091096  0.6058402993736118  0.3928114544962525 1.0000   
         H         H         1.0       0.8368133658294374  0.5536134877929432  0.5589487073994178 1.0000   
         H         H         1.0       0.7964103781893028  0.5564580556736674  0.6078669450894914 1.0000   
         H         H         1.0       0.7569144481658195  0.6052715440250285  0.5067687240195139 1.0000   
         H         H         1.0       0.8024880402468961  0.6077813688302401  0.45293349463146565          1.0000   
         H         H         1.0       0.6651537337707346  0.44313040367894097           0.6179907810219818 1.0000   
         H         H         1.0       0.7236792196436511  0.5030300794083291  0.6286673018045688 1.0000   
         H         H         1.0       0.6736224830324065  0.5555274619551316  0.5379087059988804 1.0000   
         H         H         1.0       0.6268934968458133  0.500037417412652   0.5224613482409528 1.0000   
         H         H         1.0       0.7825620671694257  0.6536814125828688  0.5566998659143372 1.0000   
         H         H         1.0       0.7601105341024939  0.6965067112441637  0.5436340296801123 1.0000   
         H         H         1.0       0.6518531189772686  0.6215343175397902  0.6062707494865991 1.0000   
         H         H         1.0       0.6779737767530635  0.57822895278108    0.6308411143195451 1.0000   
         H         H         1.0       0.7014479355707977  0.5402848559610391  0.677590292595038  1.0000   
         H         H         1.0       0.7254747739975539  0.5429023589363163  0.7479946587632894 1.0000   
         H         H         1.0       0.8347956752490511  0.6340454991685761  0.6914237712007655 1.0000   
         H         H         1.0       0.8091759685469366  0.6294160082881235  0.6220640585938125 1.0000   
         C         C         1.0       0.662772501751541   0.7253385507424185  0.011144001261293272         1.0000   
         C         C         1.0       0.6739569570952298  0.7602095230339548  0.9867724844554238 1.0000   
         C         C         1.0       0.6451143613095951  0.7672132322040613  0.9689070546849997 1.0000   
         C         C         1.0       0.606879449255973   0.7405768082311702  0.9784165001376114 1.0000   
         C         C         1.0       0.5978822196872446  0.7099038535671943  0.009434467617916473         1.0000   
         C         C         1.0       0.6257739241077479  0.701864617261771   0.02361511014365615          1.0000   
         H         H         1.0       0.7041678813545869  0.7821514602591291  0.9827583075015821 1.0000   
         H         H         1.0       0.6546776273073344  0.7946037311722559  0.9499184303316722 1.0000   
         H         H         1.0       0.5693447757974898  0.6872588587484395  0.02236240757195113          1.0000   
         H         H         1.0       0.6219422305395944  0.6795099913858939  0.04871155739032584          1.0000   
         C         C         1.0       0.5269892669740611  0.6735261296732449  0.9500556391106136 1.0000   
         C         C         1.0       0.5301279697892755  0.7065082906274982  0.9599301353350951 1.0000   
         C         C         1.0       0.49522482643601506           0.7063571151386644 0.9687160605080778 1.0000   
         C         C         1.0       0.4596021926817277  0.6758373234731574  0.9665620954673867 1.0000   
         C         C         1.0       0.4579437321244676  0.6421638662058474  0.9591974644829259 1.0000   
         C         C         1.0       0.4928674915910021  0.6420946692895275  0.9504932167910528 1.0000   
         C         C         1.0       0.5726980218859951  0.74490353099786    0.956687440808978  1.0000   
         C         C         1.0       0.5779236939360368  0.7585750430760692  0.9048749186055595 1.0000   
         C         C         1.0       0.5581240497940251  0.7764587132435861  0.8855651288334746 1.0000   
         C         C         1.0       0.5649717578467099  0.7930355515658271  0.8443064745086514 1.0000   
         C         C         1.0       0.5905447136457384  0.7905619612030818  0.8172653850730385 1.0000   
         C         C         1.0       0.6088317949135692  0.7713510250636539  0.8357953811738633 1.0000   
         C         C         1.0       0.6039706968104009  0.7562830563690992  0.8779753443876149 1.0000   
         C         C         1.0       0.5620694754644804  0.7677657761136399  0.026009849392620146         1.0000   
         C         C         1.0       0.5677520806665463  0.795008254179067   0.050201068539836136         1.0000   
         C         C         1.0       0.588196582511776   0.83303552970307    0.03295239572926211          1.0000   
         C         C         1.0       0.6027379508223769  0.8414981014602     0.9907443704598762 1.0000   
         C         C         1.0       0.5991520943898165  0.8146069442745221  0.9686856715527599 1.0000   
         C         C         1.0       0.5771494199451348  0.7765453700486667  0.9843319646884806 1.0000   
         C         C         1.0       0.5922006687910795  0.8646695685045456  0.05943673158222903          1.0000   
         C         C         1.0       0.4806023211646093  0.8609500626715456  0.03288772526007552          1.0000   
         C         C         1.0       0.4826957343161872  0.8360735123199059  0.06665211435003292          1.0000   
         C         C         1.0       0.5177236125394786  0.8365009144695466  0.07192108309498466          1.0000   
         C         C         1.0       0.5504993855286014  0.8628077206560275  0.04887104165980499          1.0000   
         C         C         1.0       0.5466057379678064  0.8837186201776209  0.011418824009221801         1.0000   
         C         C         1.0       0.5123354597576716  0.8828875694557891  0.0037709121706674046        1.0000   
         C         C         1.0       0.6299092437384315  0.9085454410124744  0.04818744586718408          1.0000   
         C         C         1.0       0.6675837080084964  0.9155952308543667  0.04129561726496263          1.0000   
         C         C         1.0       0.6987165079182072  0.952229540057544   0.032121316533980315         1.0000   
         C         C         1.0       0.6942851972132071  0.9822962397148691  0.03375774916469684          1.0000   
         C         C         1.0       0.6601820293024998  0.976898101582206   0.046398935090340376         1.0000   
         C         C         1.0       0.6268932080289608  0.9408260284311193  0.05064425355672346          1.0000   
         C         C         1.0       0.5830033368028186  0.8669015986277376  0.14166670391525818          1.0000   
         C         C         1.0       0.5881199693727536  0.8610764980556831  0.18499307443070107          1.0000   
         C         C         1.0       0.6076232749077254  0.8427106840293117  0.20061610333544497          1.0000   
         C         C         1.0       0.6275811767102001  0.8356351216245576  0.1702781522572053 1.0000   
         C         C         1.0       0.6249344235564789  0.8436597503389145  0.12653164175615925          1.0000   
         C         C         1.0       0.5998204241860521  0.8562601948190701  0.11166962450053694          1.0000   
         H         H         1.0       0.5520547653569816  0.6718411208215015  0.9435348182179193 1.0000   
         H         H         1.0       0.4967754790538299  0.7322233697881277  0.9726632609805147 1.0000   
         H         H         1.0       0.4329603136567612  0.6757496728047679  0.9699362875124904 1.0000   
         H         H         1.0       0.4906308982316219  0.6155912151196657  0.9481726428982137 1.0000   
         H         H         1.0       0.5357936104633699  0.7768430477162548  0.9018412661092712 1.0000   
         H         H         1.0       0.5501583847577168  0.8084830097151741  0.8292762585919007 1.0000   
         H         H         1.0       0.6313018730408235  0.7715662323933857  0.8170900245420732 1.0000   
         H         H         1.0       0.6205179528172361  0.7436085767650593  0.8907083703616252 1.0000   
         H         H         1.0       0.5469848730225662  0.7380080434141701  0.041382788620000124         1.0000   
         H         H         1.0       0.5553384280810391  0.7862921534799364  0.08336280139386916          1.0000   
         H         H         1.0       0.6189998958155869  0.871496496105365   0.974169474971495  1.0000   
         H         H         1.0       0.6121288946019211  0.8238783604950787  0.9352149208085342 1.0000   
         H         H         1.0       0.45582281288575477           0.8167903038243333 0.08777073138181968          1.0000   
         H         H         1.0       0.5200597947813629  0.8170550719345576  0.09877035624097336          1.0000   
         H         H         1.0       0.5705851387522971  0.8988524018692723  0.9893292338668365 1.0000   
         H         H         1.0       0.5115116515923187  0.9010906589877975  0.9771405083065512 1.0000   
         H         H         1.0       0.6762442474053322  0.8954401295523503  0.045000628492620216         1.0000   
         H         H         1.0       0.7283444050234336  0.9560400716427029  0.030890932293618847         1.0000   
         H         H         1.0       0.6559412560708826  0.002634218142770539         0.042941270543056895         1.0000   
         H         H         1.0       0.5997002272062786  0.9389594977582786  0.056518895979397576         1.0000   
         H         H         1.0       0.5668711536004379  0.8820569662157788  0.13344022381350273          1.0000   
         H         H         1.0       0.5690323240431433  0.8624475505869528  0.20907571021968815          1.0000   
         H         H         1.0       0.6437314257218371  0.8231222425614871  0.18229355808832717          1.0000   
         H         H         1.0       0.6406793920192894  0.8386159243656847  0.1023381184355261 1.0000   
         C         C         1.0       0.6374808466626918  0.6852094973259477  0.49396459833501066          1.0000   
         C         C         1.0       0.6485855803602611  0.716185355289937   0.4613031452038573 1.0000   
         C         C         1.0       0.6240030261070512  0.7294283020986896  0.4498567640009706 1.0000   
         C         C         1.0       0.5841984015248743  0.7071301716050145  0.463282377573754  1.0000   
         C         C         1.0       0.5740535143422162  0.6750618532299452  0.49401777989507495          1.0000   
         C         C         1.0       0.5998210268876665  0.6637176820341507  0.5070916184482867 1.0000   
         H         H         1.0       0.6789285214974818  0.7339781360818289  0.454494069595872  1.0000   
         H         H         1.0       0.636984847836417   0.7554090880944333  0.4251207597988772 1.0000   
         H         H         1.0       0.5469096694950784  0.6600539042334462  0.5134711486689665 1.0000   
         H         H         1.0       0.5912623822082825  0.6379300597979307  0.5308614146045132 1.0000   
         C         C         1.0       0.5056133676659774  0.6483384263915448  0.4295461792039153 1.0000   
         C         C         1.0       0.5118751270210964  0.6818243838195112  0.44080569162589006          1.0000   
         C         C         1.0       0.4798860435791514  0.6826966560937954  0.45260775297312605          1.0000   
         C         C         1.0       0.4439683829334247  0.6514984490100608  0.4543173266567498 1.0000   
         C         C         1.0       0.4378471582876126  0.6179611408362109  0.44413096151939374          1.0000   
         C         C         1.0       0.4710369532042942  0.6169357444983974  0.43214682761978584          1.0000   
         C         C         1.0       0.5537270089611137  0.7194750621368577  0.44353226220439684          1.0000   
         C         C         1.0       0.5594782885179379  0.7355637359988467  0.3922432651781019 1.0000   
         C         C         1.0       0.5392708518631659  0.7527408599716781  0.3764812895041097 1.0000   
         C         C         1.0       0.5439617257234776  0.7690775889527018  0.3335340007623634 1.0000   
         C         C         1.0       0.5696992609577364  0.7692178230088673  0.30583834376320057          1.0000   
         C         C         1.0       0.5871459914769339  0.7483815033759269  0.3187201798676899 1.0000   
         C         C         1.0       0.5854119560307609  0.7340067355730817  0.36211675292024276          1.0000   
         C         C         1.0       0.5407314391725112  0.7359043536094786  0.5172546138126386 1.0000   
         C         C         1.0       0.5384420561063062  0.7610157493017686  0.5411497894272338 1.0000   
         C         C         1.0       0.5596418115624189  0.7999956961232356  0.5282517496218067 1.0000   
         C         C         1.0       0.5799034773290783  0.8125905499212059  0.4883255724688309 1.0000   
         C         C         1.0       0.5815335665747559  0.7877498964505798  0.46561600418805704          1.0000   
         C         C         1.0       0.5582046283298834  0.7482445562151159  0.47579181154784195          1.0000   
         C         C         1.0       0.5610034090774447  0.8306902898503505  0.554871118467867  1.0000   
         C         C         1.0       0.4481472891501609  0.8224726619679406  0.5286732167806006 1.0000   
         C         C         1.0       0.45353142915900846           0.8023131162203073 0.5646981421441211 1.0000   
         C         C         1.0       0.4870000666319279  0.8042039861366845  0.5685658420276435 1.0000   
         C         C         1.0       0.5187293921363716  0.827310031091023   0.5415226601351458 1.0000   
         C         C         1.0       0.5144829720068048  0.8452695961380386  0.5023184034671607 1.0000   
         C         C         1.0       0.47724462539649226           0.8418167095609229 0.4969833527564946 1.0000   
         C         C         1.0       0.5959266565985142  0.8732970593294881  0.5453233634669243 1.0000   
         C         C         1.0       0.6329708546536232  0.8782106043204766  0.5346068595481109 1.0000   
         C         C         1.0       0.6636875922344226  0.9144706875250251  0.5252102714010638 1.0000   
         C         C         1.0       0.6594394165427521  0.9456293246078155  0.5294444245294128 1.0000   
         C         C         1.0       0.6248092116327706  0.9419126074713295  0.5394765985735085 1.0000   
         C         C         1.0       0.5934154359010182  0.9057039410722836  0.5493299374567064 1.0000   
         C         C         1.0       0.5511879764366909  0.8330740354159464  0.6403791862985935 1.0000   
         C         C         1.0       0.5518894036254244  0.8211516493846648  0.6837590435363033 1.0000   
         C         C         1.0       0.567676323972066   0.7983860186185769  0.6958317054022986 1.0000   
         C         C         1.0       0.5887270145259152  0.7935747658288672  0.665356848179249  1.0000   
         C         C         1.0       0.587271693652065   0.8057617215115477  0.6227834916240418 1.0000   
         C         C         1.0       0.5665583745966369  0.8237864165044931  0.6074020868142042 1.0000   
         H         H         1.0       0.5283134604494678  0.647932540550109   0.4127691312489093 1.0000   
         H         H         1.0       0.48130315498636006           0.7084865837880826 0.4600878922272289 1.0000   
         H         H         1.0       0.4183910505638075  0.6543691876016452  0.4618661772312841 1.0000   
         H         H         1.0       0.4681167747202232  0.5901642538765277  0.4236310623234427 1.0000   
         H         H         1.0       0.5238438097304671  0.7597619214488003  0.3989084062074448 1.0000   
         H         H         1.0       0.529536181624042   0.7853449777637009  0.324530850300877  1.0000   
         H         H         1.0       0.6060798580757748  0.7493510626555467  0.29370774857870824          1.0000   
         H         H         1.0       0.6031703478474579  0.7204402596493678  0.367147010757864  1.0000   
         H         H         1.0       0.5242000765517325  0.7057571544026843  0.5226738085267104 1.0000   
         H         H         1.0       0.5244534785865439  0.7490686423500905  0.5732934055132555 1.0000   
         H         H         1.0       0.5914910828244636  0.840237501217854   0.47149150877367135          1.0000   
         H         H         1.0       0.5981338550296392  0.7973015213661746  0.4342308226784857 1.0000   
         H         H         1.0       0.4300018404398107  0.7854180722281576  0.588404762726813  1.0000   
         H         H         1.0       0.4877597295806114  0.7879053987222033  0.6004117033536682 1.0000   
         H         H         1.0       0.5369556933167539  0.8601777653433281  0.4774247954363254 1.0000   
         H         H         1.0       0.47176373542243044           0.8517952153858704 0.465216574196907  1.0000   
         H         H         1.0       0.6369146433277979  0.8548105232432407  0.5370075631613578 1.0000   
         H         H         1.0       0.6929753578137282  0.919216410388147   0.5204845258083935 1.0000   
         H         H         1.0       0.6231543032889796  0.9660737559470189  0.5413517211206883 1.0000   
         H         H         1.0       0.5656762185740644  0.9035154581128675  0.5586649599306522 1.0000   
         H         H         1.0       0.5387089132337997  0.8504057053703629  0.6284128030844601 1.0000   
         H         H         1.0       0.5367899815321402  0.8279256104414473  0.7085360503778159 1.0000   
         H         H         1.0       0.6040047459691065  0.7780393932350702  0.6741972460312171 1.0000   
         H         H         1.0       0.6017799326076558  0.8008571377204011  0.5987021582077411 1.0000   
         C         C         1.0       0.9609586445621988  0.277791432981546   0.03294189879394812          1.0000   
         C         C         1.0       0.9393659289240286  0.2560619045894548  0.07175814455761677          1.0000   
         C         C         1.0       0.9083823589450509  0.2580652863453759  0.08451960567885004          1.0000   
         C         C         1.0       0.9005161704055076  0.2855123502795329  0.06581207667494707          1.0000   
         C         C         1.0       0.9199063595602439  0.3049494868985327  0.025120109887581787         1.0000   
         C         C         1.0       0.9486911333843968  0.3001597617668801  0.008263275186448092         1.0000   
         H         H         1.0       0.947609969397172   0.2370028183300818  0.08993681311397533          1.0000   
         H         H         1.0       0.8894361009194499  0.2358941251839064  0.10802751510608151          1.0000   
         H         H         1.0       0.9097655868031295  0.32163011568856426           0.003168620481048734         1.0000   
         H         H         1.0       0.9655526835203126  0.31794050157646103           0.9787711773449509 1.0000   
         C         C         1.0       0.9122394874610936  0.3644351418004822  0.07710644673454312          1.0000   
         C         C         1.0       0.8761710211862817  0.3340821706446665  0.07613689422723194          1.0000   
         C         C         1.0       0.8454364789851516  0.34103209887409736           0.0758171439222162 1.0000   
         C         C         1.0       0.8513458127491156  0.3775819349839915  0.0737042988851243 1.0000   
         C         C         1.0       0.8878798487779912  0.4076558899218804  0.06943673087534462          1.0000   
         C         C         1.0       0.9183381376491019  0.40114385990159096           0.07310508721976017          1.0000   
         C         C         1.0       0.8681623228636053  0.29272259355476277           0.08174364240461414          1.0000   
         C         C         1.0       0.8591374358084768  0.2812588405522503  0.13439639205617046          1.0000   
         C         C         1.0       0.8221427448151546  0.26683010988863853           0.1507109437822164 1.0000   
         C         C         1.0       0.8151990795386183  0.255505251445502   0.19485204906365092          1.0000   
         C         C         1.0       0.8441159369682507  0.2598778299810445  0.22268755553118796          1.0000   
         C         C         1.0       0.8824090699044925  0.27571757043928397           0.2065286224603965 1.0000   
         C         C         1.0       0.8896680836826475  0.28557833470900673           0.16231362153169684          1.0000   
         C         C         1.0       0.8235809568699534  0.2770746976087846  0.016821541936375476         1.0000   
         C         C         1.0       0.7932943218377249  0.25457289891180945           0.9920080158712259 1.0000   
         C         C         1.0       0.7717910960203361  0.21578120859424352           0.002348404123054031         1.0000   
         C         C         1.0       0.7781532796883246  0.20023902839294802           0.04162097666978464          1.0000   
         C         C         1.0       0.8089742173013245  0.22392219706342248           0.0676500019892882 1.0000   
         C         C         1.0       0.8324335273171724  0.26361233280402246           0.055036320686012725         1.0000   
         C         C         1.0       0.7414201801710844  0.18965042437445423           0.9691516492507051 1.0000   
         C         C         1.0       0.6409640145372885  0.19645290963296438           0.008500022968899698         1.0000   
         C         C         1.0       0.6656466613381123  0.22131323512271098           0.9759606756015126 1.0000   
         C         C         1.0       0.6988213886261125  0.22115197142161347           0.9654951180267994 1.0000   
         C         C         1.0       0.7040772948173658  0.1921461672236683  0.9875650877641455 1.0000   
         C         C         1.0       0.6800429574142173  0.16919718886735766           0.023580449201432242         1.0000   
         C         C         1.0       0.6510389994818632  0.17373659882359785           0.03636470084092375          1.0000   
         C         C         1.0       0.7372939468028664  0.14870902169479233           0.9716208743283898 1.0000   
         C         C         1.0       0.7697249405758608  0.1452529221241138  0.9737125387280725 1.0000   
         C         C         1.0       0.7662592542460602  0.1098417290966861  0.9770498681561656 1.0000   
         C         C         1.0       0.7309741409531878  0.07729659030280665           0.9726983416552268 1.0000   
         C         C         1.0       0.6982364831977161  0.07983841856700098           0.9729626987980013 1.0000   
         C         C         1.0       0.7016541968186996  0.11533093855553181           0.9705375561218118 1.0000   
         C         C         1.0       0.7211314908671353  0.19370591152287445           0.8896508676527319 1.0000   
         C         C         1.0       0.7279618777372913  0.20095487503416717           0.8451608803634498 1.0000   
         C         C         1.0       0.7657224040840982  0.22172336573450302           0.8299347759290581 1.0000   
         C         C         1.0       0.7958787849319056  0.23270695311044903           0.8562553630018279 1.0000   
         C         C         1.0       0.7899280929654934  0.2245212918440738  0.9010631379736399 1.0000   
         C         C         1.0       0.7519046105564244  0.20429214232177434           0.9180412557168229 1.0000   
         H         H         1.0       0.9387279910296703  0.3622796155004003  0.07884626323971106          1.0000   
         H         H         1.0       0.8155035899800356  0.3188999860818187  0.08206675007802013          1.0000   
         H         H         1.0       0.8267395271589439  0.38250389978666083           0.07457168221873808          1.0000   
         H         H         1.0       0.9469011887103047  0.42603583360919145           0.07150602482208465          1.0000   
         H         H         1.0       0.7977703463917718  0.26084212932422535           0.12805128379988312          1.0000   
         H         H         1.0       0.7857312423718816  0.2419137552823448  0.20993856479528764          1.0000   
         H         H         1.0       0.9051479217402945  0.27646751907296063           0.2261252683311285 1.0000   
         H         H         1.0       0.9181138508500363  0.29982305530069847           0.1494925242564466 1.0000   
         H         H         1.0       0.8365469022136842  0.30586149665095674           0.00040714336384089903       1.0000   
         H         H         1.0       0.7936283603392915  0.2675138235897789  0.9595267624232702 1.0000   
         H         H         1.0       0.7578638434915681  0.1733654213014209  0.05845632632255678          1.0000   
         H         H         1.0       0.8133561823681913  0.2087111961921558  0.09518789308811237          1.0000   
         H         H         1.0       0.6599588355157358  0.24208861450584437           0.9567073116972225 1.0000   
         H         H         1.0       0.7201332030119715  0.2436472164035505  0.9426986149338957 1.0000   
         H         H         1.0       0.6861114389341734  0.149285981974196   0.046862106775349105         1.0000   
         H         H         1.0       0.6344718145978143  0.15680826935302225           0.06603476488319676          1.0000   
         H         H         1.0       0.7985695604066048  0.1689057519193714  0.9721173920295835 1.0000   
         H         H         1.0       0.7923317208795437  0.10790667296626157           0.9827493988234813 1.0000   
         H         H         1.0       0.6681731802872475  0.05295956288555661           0.9719445837556724 1.0000   
         H         H         1.0       0.6744320734128109  0.11601175402113835           0.9708284459463511 1.0000   
         H         H         1.0       0.6913469135005403  0.17827029301891884           0.90083227996219   1.0000   
         H         H         1.0       0.7052029828008541  0.19405834345573975           0.8231669446630833 1.0000   
         H         H         1.0       0.825484860722419   0.24545994578422975           0.8437322659442537 1.0000   
         H         H         1.0       0.8143941195517759  0.23243450293371878           0.9237922003352166 1.0000   
         C         C         1.0       0.9404186036163731  0.25163792135904595           0.5460003764328568 1.0000   
         C         C         1.0       0.9204883431151972  0.23529898331479182           0.5842247200922204 1.0000   
         C         C         1.0       0.8917316505858519  0.24058538279981573           0.5953292529743724 1.0000   
         C         C         1.0       0.8843224344012873  0.2657430247075787  0.5673363427720018 1.0000   
         C         C         1.0       0.9048753920532491  0.2828847523516373  0.5275623892492863 1.0000   
         C         C         1.0       0.9301735746614539  0.27240483081818484           0.5161770619813071 1.0000   
         H         H         1.0       0.9259695968377936  0.21632997945929638           0.605505254331739  1.0000   
         H         H         1.0       0.8766876771470036  0.224560826540581   0.6258044847227823 1.0000   
         H         H         1.0       0.8986633611360278  0.30162391949907585           0.5082010559045235 1.0000   
         H         H         1.0       0.9452077142826402  0.2836811209669315  0.4848646577741909 1.0000   
         C         C         1.0       0.8914998947889895  0.34356970781253177           0.5751687601088232 1.0000   
         C         C         1.0       0.8551363348545714  0.3113439470016349  0.5700946754836708 1.0000   
         C         C         1.0       0.8227108746991113  0.31591889183417027           0.5640877955913192 1.0000   
         C         C         1.0       0.8248964627892701  0.3499772818857931  0.554929079473336  1.0000   
         C         C         1.0       0.8626244300658918  0.3828989843667364  0.5569573631156283 1.0000   
         C         C         1.0       0.8950175015693921  0.3795633579454022  0.5672228591573142 1.0000   
         C         C         1.0       0.8489328678583468  0.2702079182684855  0.5779444040208788 1.0000   
         C         C         1.0       0.8354764021327867  0.26175330578086375           0.6287941789719407 1.0000   
         C         C         1.0       0.7961036128476222  0.23886541598942934           0.6388416259953258 1.0000   
         C         C         1.0       0.7824897799505578  0.22575750986008689           0.6808776887635646 1.0000   
         C         C         1.0       0.8086670685118613  0.23398240945876125           0.714688591680486  1.0000   
         C         C         1.0       0.8472543990097285  0.2612577187019764  0.7062603585769973 1.0000   
         C         C         1.0       0.8609357897803855  0.275719052288013   0.6634661652173321 1.0000   
         C         C         1.0       0.8135702843102511  0.2535319622576013  0.5026084720245256 1.0000   
         C         C         1.0       0.7878532204777711  0.22904819854431005           0.47520819537949427          1.0000   
         C         C         1.0       0.767816009309435   0.19024527466444088           0.48984283119554484          1.0000   
         C         C         1.0       0.7716749667875472  0.1785088571179721  0.5334747010569929 1.0000   
         C         C         1.0       0.7983687976633894  0.20303163186111237           0.5583617891130359 1.0000   
         C         C         1.0       0.819563506033976   0.24200476616820873           0.5458111387232221 1.0000   
         C         C         1.0       0.7434580535955564  0.16269026510101042           0.4567192540969781 1.0000   
         C         C         1.0       0.6399407979508289  0.17383472475120706           0.45406370093655246          1.0000   
         C         C         1.0       0.6703635694515093  0.19774006237647618           0.4251264345909375 1.0000   
         C         C         1.0       0.7044503451025899  0.19546770043081013           0.42693312845886083          1.0000   
         C         C         1.0       0.7052488063749139  0.16715067812437784           0.45394642947679065          1.0000   
         C         C         1.0       0.6730945226208369  0.14192688615196994           0.48259136491492727          1.0000   
         C         C         1.0       0.6413360634085246  0.14529792993209623           0.4805917010141437 1.0000   
         C         C         1.0       0.7335195078809983  0.1207343658308032  0.4666894570577313 1.0000   
         C         C         1.0       0.7602676514463584  0.11059376558553555           0.4845304098946931 1.0000   
         C         C         1.0       0.7510879836482123  0.07394077073058125           0.49137336615206456          1.0000   
         C         C         1.0       0.7181532238209781  0.046105254259991346         0.473042764149816  1.0000   
         C         C         1.0       0.6921589453583676  0.05486537112319634           0.4510827743158034 1.0000   
         C         C         1.0       0.7004615781362511  0.09107043497506176           0.4468608855281106 1.0000   
         C         C         1.0       0.7436306783712786  0.1645222604964533  0.37158671680307337          1.0000   
         C         C         1.0       0.7615098581186036  0.1748279602951549  0.3312258628009633 1.0000   
         C         C         1.0       0.8020698327035334  0.1914624447810561  0.3280847172607853 1.0000   
         C         C         1.0       0.8222262502514993  0.19688587448639933           0.3652836768231682 1.0000   
         C         C         1.0       0.8036258854956131  0.18539741436515825           0.4054968562211497 1.0000   
         C         C         1.0       0.7637137635943625  0.17198291547162678           0.4087069878953973 1.0000   
         H         H         1.0       0.9153960051276826  0.3409804460489313  0.5871856755367755 1.0000   
         H         H         1.0       0.7934914479076373  0.29186850655059765           0.5645106845675524 1.0000   
         H         H         1.0       0.8002963647854036  0.3542024344258822  0.5495174614191369 1.0000   
         H         H         1.0       0.921896478093743   0.40436868752540617           0.5688987410074867 1.0000   
         H         H         1.0       0.7759456331170617  0.23036109629755416           0.6137162945275318 1.0000   
         H         H         1.0       0.7515277499272434  0.20862583302333917           0.6880949249191954 1.0000   
         H         H         1.0       0.8668701634065524  0.2680545083803498  0.7332124493211444 1.0000   
         H         H         1.0       0.8913701126212333  0.28949600089780203           0.655856341318375  1.0000   
         H         H         1.0       0.8299309552482621  0.28348885335705226           0.4913030176966488 1.0000   
         H         H         1.0       0.7882271133089329  0.24141418966700623           0.44180777957544703          1.0000   
         H         H         1.0       0.7571364144783708  0.14887650931920146           0.5515325574263507 1.0000   
         H         H         1.0       0.8056293003993467  0.19164753870797518           0.5872313483340135 1.0000   
         H         H         1.0       0.6709793160934016  0.22017682367066035           0.40327062896008   1.0000   
         H         H         1.0       0.7310256082560389  0.21584362048495154           0.41001209091202534          1.0000   
         H         H         1.0       0.6752175305967639  0.12171802060463358           0.5044964100273754 1.0000   
         H         H         1.0       0.6158623822332372  0.12372032922055168           0.49841082796915553          1.0000   
         H         H         1.0       0.7865210911523453  0.13135048796882406           0.49671690200565793          1.0000   
         H         H         1.0       0.7731540752262844  0.0675538591821953  0.5077288763697376 1.0000   
         H         H         1.0       0.6684076007698359  0.0346514775764637  0.43427340079138604          1.0000   
         H         H         1.0       0.6791433843224006  0.09522182879547017           0.43060796357464387          1.0000   
         H         H         1.0       0.7120833052332655  0.14627252346774877           0.3708260793481992 1.0000   
         H         H         1.0       0.7453568794578032  0.16936200789140293           0.30159814028489323          1.0000   
         H         H         1.0       0.8534292118745168  0.2118332255376334  0.36246066210222716          1.0000   
         H         H         1.0       0.8194782459941217  0.19432471806871549           0.43560203426185234          1.0000   
         C         C         1.0       0.3640466423052443  0.5486802710305405  0.9330674846980291 1.0000   
         C         C         1.0       0.33553322581261036           0.5418162734135809 0.9018374774790744 1.0000   
         C         C         1.0       0.3020198537224616  0.5066633885412519  0.9031701553210674 1.0000   
         C         C         1.0       0.29772838699274656           0.4756383376661193 0.9320004346339733 1.0000   
         C         C         1.0       0.3271895089042529  0.4826176513833124  0.9609033005450373 1.0000   
         C         C         1.0       0.35957702753777593           0.5174250655091405 0.9611645699650064 1.0000   
         H         H         1.0       0.3391097506606997  0.5649763748566682  0.8773918500028653 1.0000   
         H         H         1.0       0.2783744751020783  0.5028223175712087  0.8807432031295208 1.0000   
         H         H         1.0       0.32544275341416    0.4611614993953865  0.9874751007668668 1.0000   
         H         H         1.0       0.38270831878467226           0.5215438376282674 0.9816069375219693 1.0000   
         C         C         1.0       0.30086201705159854           0.4031100954261521 0.9327042408290254 1.0000   
         C         C         1.0       0.26579540773901966           0.399692809201617  0.9453871107698072 1.0000   
         C         C         1.0       0.2398962666198627  0.3659121157680447  0.9695221835076646 1.0000   
         C         C         1.0       0.24809417927721913           0.33792379545930384          0.985785345863495  1.0000   
         C         C         1.0       0.2854740725206764  0.3460155816907985  0.9793524998776018 1.0000   
         C         C         1.0       0.31110470879166746           0.3778707386655022 0.9531955400868845 1.0000   
         C         C         1.0       0.2580831800793167  0.4336602750837647  0.9314768713246258 1.0000   
         C         C         1.0       0.23690484846275392           0.4236360580535102 0.8849266213259842 1.0000   
         C         C         1.0       0.19738469219046798           0.39723849870794886          0.882342197532076  1.0000   
         C         C         1.0       0.1817921849341623  0.38545272768778827           0.844460233277859  1.0000   
         C         C         1.0       0.20425056447003834           0.3991698186865164 0.8065511756489425 1.0000   
         C         C         1.0       0.24265282639622612           0.425418551832179  0.8076649149754771 1.0000   
         C         C         1.0       0.259710537391379   0.4348710470429593  0.848581440518712  1.0000   
         C         C         1.0       0.2302470022329724  0.4244775881819145  0.01133463123421278          1.0000   
         C         C         1.0       0.2053025715048087  0.4257292162906789  0.03845880077019919          1.0000   
         C         C         1.0       0.18385409485855717           0.44141766150513406          0.0235270526677747 1.0000   
         C         C         1.0       0.18607782510748092           0.4553806500903466 0.9798608574039553 1.0000   
         C         C         1.0       0.21045822053679542           0.4531681726970852 0.9519719864084626 1.0000   
         C         C         1.0       0.23241805740192092           0.4358134376041725 0.9669121043274077 1.0000   
         C         C         1.0       0.1540750081899236  0.4418781440074494  0.05786164261762732          1.0000   
         C         C         1.0       0.05892062424197157           0.3367159114953225 0.014362121775711422         1.0000   
         C         C         1.0       0.08381395770716961           0.3347663960355623 0.04473661456516133          1.0000   
         C         C         1.0       0.111602647002019   0.3682968268017346  0.060640102652238015         1.0000   
         C         C         1.0       0.11615092315670404           0.40413353381759426          0.04326224425981959          1.0000   
         C         C         1.0       0.09120026094064843           0.4044108903432803 0.01194935406795783          1.0000   
         C         C         1.0       0.06138374103084421           0.37160490950023123          0.999693617437675  1.0000   
         C         C         1.0       0.14950440357926428           0.477515086292558  0.04997395891345152          1.0000   
         C         C         1.0       0.18235084123465395           0.5135313440957198 0.041800940670177505         1.0000   
         C         C         1.0       0.1795961903501445  0.545299777249855   0.03479458929182005          1.0000   
         C         C         1.0       0.14293480699668323           0.5412341534868481 0.03360197464166046          1.0000   
         C         C         1.0       0.11157439052178082           0.5076018487845935 0.04804269909264857          1.0000   
         C         C         1.0       0.11521888019902425           0.47605324066114113          0.05399287048251302          1.0000   
         C         C         1.0       0.13638862535091203           0.41951207841057747          0.14052017868365613          1.0000   
         C         C         1.0       0.14551857829917658           0.4174800193090961 0.1840799847630576 1.0000   
         C         C         1.0       0.18312386098175595           0.44067840977652667          0.1969945079404981 1.0000   
         C         C         1.0       0.21065647019419528           0.46225298997715897          0.164489281791916  1.0000   
         C         C         1.0       0.20053694951859283           0.4604808108970754 0.12211978397793202          1.0000   
         C         C         1.0       0.1651667117211739  0.44082041633732116           0.10907485201159337          1.0000   
         H         H         1.0       0.32253644063837844           0.4279164661044581 0.9130672721530805 1.0000   
         H         H         1.0       0.2131456526824222  0.3619987594930313  0.9835279832192722 1.0000   
         H         H         1.0       0.22961057646956118           0.31262418647840695          0.008352451630449842         1.0000   
         H         H         1.0       0.3398626831821795  0.38349461515787087           0.9488317028493518 1.0000   
         H         H         1.0       0.18010354631048955           0.3858304894929027 0.9119967308257417 1.0000   
         H         H         1.0       0.15224026330613294           0.367431875899734  0.8403981582425429 1.0000   
         H         H         1.0       0.2577054315324538  0.4340129192568311  0.7776340039802063 1.0000   
         H         H         1.0       0.2899434350107077  0.45322537470726676           0.8504427657246698 1.0000   
         H         H         1.0       0.25053080807529193           0.4160684677306666 0.026961377670551036         1.0000   
         H         H         1.0       0.20374102407188946           0.4135287270831806 0.07253381669831864          1.0000   
         H         H         1.0       0.16765747671086614           0.46754029870923564          0.9706027283386854 1.0000   
         H         H         1.0       0.21407424946162637           0.4684651204111003 0.9205592727189105 1.0000   
         H         H         1.0       0.08251121217619987           0.30845181124027043          0.05746733445554029          1.0000   
         H         H         1.0       0.12860965244717162           0.3648283834925606 0.08516757569723109          1.0000   
         H         H         1.0       0.0969156155030886  0.4307144780778938  0.9941295747709145 1.0000   
         H         H         1.0       0.042437908028068155          0.3715259912423243 0.9735639296544647 1.0000   
         H         H         1.0       0.21092832360057293           0.5181245112256395 0.032291278669125775         1.0000   
         H         H         1.0       0.20438128536114192           0.5716334329821104 0.022420935430195688         1.0000   
         H         H         1.0       0.08396998990956793           0.5057912497773153 0.046642795184716423         1.0000   
         H         H         1.0       0.0890840574473382  0.4508753894730223  0.0650229954995795 1.0000   
         H         H         1.0       0.1060955375712752  0.4054697791917211  0.13388138160677884          1.0000   
         H         H         1.0       0.12631783227298374           0.40093563983335523          0.21096341492505463          1.0000   
         H         H         1.0       0.2420653875261581  0.48104636392340056           0.1724872213534406 1.0000   
         H         H         1.0       0.22235407437039534           0.4784320006884678 0.09504165895495464          1.0000   
         C         C         1.0       0.3286450736365775  0.5346699950365675  0.4632921948375752 1.0000   
         C         C         1.0       0.30689348798695    0.5285709376742384  0.4265766561006145 1.0000   
         C         C         1.0       0.2809590074874089  0.49168835871035577           0.41930595610601906          1.0000   
         C         C         1.0       0.2764537769610521  0.4606032415826027  0.44869725858249093          1.0000   
         C         C         1.0       0.2945290575383158  0.46851519449109624           0.48685997998762226          1.0000   
         C         C         1.0       0.32053122350370056           0.5041617571341077 0.49457734564893435          1.0000   
         H         H         1.0       0.31188235534218856           0.551735489881859  0.40303992592545945          1.0000   
         H         H         1.0       0.26488916107563026           0.4872451008091137 0.39025916657523346          1.0000   
         H         H         1.0       0.2909874625091128  0.44700737569838483           0.5119530207262518 1.0000   
         H         H         1.0       0.33311656501714526           0.5074596292119372 0.5265185509433228 1.0000   
         C         C         1.0       0.29531201766828247           0.39452359871906917          0.4613216313129499 1.0000   
         C         C         1.0       0.2572254911298809  0.38518393489802677           0.45372702569698664          1.0000   
         C         C         1.0       0.22969838885437116           0.34678139211843395          0.46227367274280057          1.0000   
         C         C         1.0       0.23889260100009102           0.3194989134914601 0.47832101589880544          1.0000   
         C         C         1.0       0.277163707870421   0.32983585277068717           0.48252769381809507          1.0000   
         C         C         1.0       0.3048927440230383  0.3678158753225158  0.47332365871079257          1.0000   
         C         C         1.0       0.24473090865506955           0.4166477351046402 0.4413082525299725 1.0000   
         C         C         1.0       0.23663440316063541           0.4100805683143222 0.3919865845273634 1.0000   
         C         C         1.0       0.19947881051705893           0.3862098214621121 0.37829670877072885          1.0000   
         C         C         1.0       0.19179645872198442           0.38776720181709523          0.33511912738478794          1.0000   
         C         C         1.0       0.22066660034757396           0.4078390123060479 0.3026296438182542 1.0000   
         C         C         1.0       0.257593654146675   0.42605879616485665           0.31546920953899094          1.0000   
         C         C         1.0       0.266164604322151   0.42719410091746224           0.35999728698710065          1.0000   
         C         C         1.0       0.2047150341218733  0.39557395849079935           0.515362991936688  1.0000   
         C         C         1.0       0.17992806960950244           0.3986382507218643 0.5424495555365921 1.0000   
         C         C         1.0       0.15622240279915778           0.41146404972594003          0.5264847968455217 1.0000   
         C         C         1.0       0.16044023845089087           0.4271619704865858 0.4836077149096116 1.0000   
         C         C         1.0       0.187940667030442   0.42711020562301677           0.45594076001512845          1.0000   
         C         C         1.0       0.21055998900026862           0.4113352786827609 0.47160783374503573          1.0000   
         C         C         1.0       0.12447576053621075           0.40856646560226995          0.5591127020483558 1.0000   
         C         C         1.0       0.030596048562111726          0.30279251295214527          0.5157053227495265 1.0000   
         C         C         1.0       0.050565886851040985          0.3007004052544619 0.5517842895603694 1.0000   
         C         C         1.0       0.07906653668623982           0.3338528989117768 0.5683781337551904 1.0000   
         C         C         1.0       0.08797665060917426           0.3702349239752812 0.5487340520603993 1.0000   
         C         C         1.0       0.06697283884711103           0.37021443863715364          0.510954099971734  1.0000   
         C         C         1.0       0.03750286088554654           0.33710922423548206          0.4961336592568412 1.0000   
         C         C         1.0       0.11686715363118537           0.4429735339664505 0.5493501688975547 1.0000   
         C         C         1.0       0.14883450197413745           0.47847381833350905          0.5385483940056699 1.0000   
         C         C         1.0       0.14335367893815418           0.5088555924673966 0.523518292899665  1.0000   
         C         C         1.0       0.10789548766156806           0.505289483519308  0.5229938634781753 1.0000   
         C         C         1.0       0.07692895068329439           0.47028191355949817          0.535691065892193  1.0000   
         C         C         1.0       0.08135077681603885           0.44033683121900347          0.5540415101761971 1.0000   
         C         C         1.0       0.10713253608059671           0.38969121186199096          0.6425401213082079 1.0000   
         C         C         1.0       0.1173091571407837  0.39208720075243214           0.6863659375064564 1.0000   
         C         C         1.0       0.15593266120402177           0.4094225496790445 0.6976259260703689 1.0000   
         C         C         1.0       0.1832356266217795  0.429024129039439   0.6655413470581055 1.0000   
         C         C         1.0       0.17304904313252964           0.4318913080361464 0.6224858545874995 1.0000   
         C         C         1.0       0.13481195713723018           0.4093542706767314 0.6087905504386522 1.0000   
         H         H         1.0       0.3167825056931445  0.42238994173715805           0.45612109162570214          1.0000   
         H         H         1.0       0.20082814530169368           0.34071421614598124          0.4643510765079385 1.0000   
         H         H         1.0       0.21725074413430295           0.2931442675979737 0.4960423750113587 1.0000   
         H         H         1.0       0.335713936835628   0.37643963771113054           0.4786493731762994 1.0000   
         H         H         1.0       0.17605458183729072           0.36588881133586587          0.3996775364339333 1.0000   
         H         H         1.0       0.16068595795400042           0.3728443795953666 0.3256303484037952 1.0000   
         H         H         1.0       0.27893694776010064           0.4389367564858691 0.2900628724686518 1.0000   
         H         H         1.0       0.29663488502731106           0.4434740434328139 0.3665938619531464 1.0000   
         H         H         1.0       0.22164010464662504           0.38419394217866293          0.530170990623574  1.0000   
         H         H         1.0       0.17719018254239427           0.3847003221184825 0.5747538890178007 1.0000   
         H         H         1.0       0.14183436606409355           0.43851194993060955          0.4725990261485363 1.0000   
         H         H         1.0       0.18924539071895857           0.4388340691015225 0.4234050500290059 1.0000   
         H         H         1.0       0.04709407699053854           0.27438292746030746          0.5689381078910563 1.0000   
         H         H         1.0       0.09742215592714823           0.327838338286723  0.5906747843916997 1.0000   
         H         H         1.0       0.07227184680015408           0.39601680770325315          0.4917986749133944 1.0000   
         H         H         1.0       0.01922546940929398           0.34013684797889765          0.47227557593405356          1.0000   
         H         H         1.0       0.17790558565430495           0.4835393950738603 0.5350016973316194 1.0000   
         H         H         1.0       0.16839826415841985           0.5358376637626898 0.5094394571785715 1.0000   
         H         H         1.0       0.04652458153549671           0.4658232905196652 0.5385431873957146 1.0000   
         H         H         1.0       0.05454369364120568           0.41267697067124814          0.5652939666337926 1.0000   
         H         H         1.0       0.07515821041657694           0.3762464908246749 0.6361320383701417 1.0000   
         H         H         1.0       0.0933156768891184  0.38024522159855256           0.710888172034276  1.0000   
         H         H         1.0       0.21373572310793054           0.4489736578046241 0.6750373822161616 1.0000   
         H         H         1.0       0.19447717139073725           0.4488520981250675 0.5962878561414436 1.0000   
         C         C         1.0       0.1844846785185449  0.3894620225732062  0.7613187862144747 1.0000   
         C         C         1.0       0.16619110126441233           0.41378593244801376          0.7446130654778342 1.0000   
         H         H         1.0       0.20859858663826283           0.3947961932971452 0.7362768001121497 1.0000   
         H         H         1.0       0.15979009845666625           0.3596869462962609 0.7621954372001503 1.0000   
         H         H         1.0       0.18747265091854004           0.4429302224708908 0.7487864135925606 1.0000   
         H         H         1.0       0.14231064380971958           0.4070712128226082 0.7650412132524501 1.0000   
         C         C         1.0       0.19424902202559635           0.43973104737474955          0.24386280499023605          1.0000   
         C         C         1.0       0.20927353537235438           0.411062530906212  0.25466867814436345          1.0000   
         H         H         1.0       0.17179800414829247           0.4352468003233303 0.26624549816976883          1.0000   
         H         H         1.0       0.21743673827397522           0.4684724683513082 0.24973826332047946          1.0000   
         H         H         1.0       0.23383230716944856           0.41698365186011216          0.23253413536772743          1.0000   
         H         H         1.0       0.18574511967506038           0.3830237054679565 0.24792029530004128          1.0000   
         C         C         1.0       0.967229795260594   0.238854263757333   0.5323216551631768 1.0000   
         C         C         1.0       0.0016985168461226801         0.2657503279365842 0.4988472144238852 1.0000   
         H         H         1.0       0.9788433701333195  0.22788370546870246           0.5612131473079766 1.0000   
         H         H         1.0       0.9481918219952892  0.21294128569201334           0.5189883465935626 1.0000   
         H         H         1.0       0.9932022312632214  0.2745349954627154  0.46609660167861666          1.0000   
         H         H         1.0       0.017335748612481314          0.2503183292772302 0.4894553451972534 1.0000   
         C         C         1.0       0.9948441049321063  0.27031746919783783           0.023200034736671253         1.0000   
         C         C         1.0       0.028240435424450955          0.299080968701738  0.992904191448024  1.0000   
         H         H         1.0       0.007113099507676246          0.2649153147126959 0.05148585627200688          1.0000   
         H         H         1.0       0.9846020089008013  0.24342139904852336           0.00853256899786061          1.0000   
         H         H         1.0       0.04840281064367165           0.28855182471700486          0.9807602754393376 1.0000   
         H         H         1.0       0.01503579860458304           0.30430520710875164          0.9625426613187734 1.0000   
         C         C         1.0       0.7743686357891647  0.23481684060800556           0.7815039739265429 1.0000   
         C         C         1.0       0.7923963802925781  0.21515998386627602           0.7591634205096722 1.0000   
         H         H         1.0       0.7959464377105273  0.26599777422205567           0.7759050011327484 1.0000   
         H         H         1.0       0.7477835320680605  0.2300141352100115  0.7650170827400437 1.0000   
         H         H         1.0       0.769422316770085   0.183539383514796   0.7577474480912559 1.0000   
         H         H         1.0       0.8155506484756638  0.21582941901318048           0.7780049636772843 1.0000   
         C         C         1.0       0.8381720351661746  0.2493232117381086  0.2711163652895454 1.0000   
         C         C         1.0       0.8225097948968906  0.20619536311054038           0.2830140921790873 1.0000   
         H         H         1.0       0.8659590206951346  0.2649655715366305  0.2873331781562008 1.0000   
         H         H         1.0       0.817779807058598   0.2574822979265759  0.28263324675751006          1.0000   
         H         H         1.0       0.8465870961438521  0.20095130988795548           0.27547667616783456          1.0000   
         H         H         1.0       0.8012214604918192  0.18841429617130365           0.25893537099200303          1.0000   
         C         C         1.0       0.36121916012551053           0.5752600092156441 0.4670475045531523 1.0000   
         C         C         1.0       0.3976921060484517  0.5826827454989315  0.44408150470646757          1.0000   
         H         H         1.0       0.3544259511046067  0.5975548563136241  0.45570902094281046          1.0000   
         H         H         1.0       0.36415666892280313           0.5778601998235611 0.5015772876221175 1.0000   
         H         H         1.0       0.39137996941752373           0.5807637027182165 0.4080580858703111 1.0000   
         H         H         1.0       0.40249967095935557           0.55905301422643   0.45384771327832835          1.0000   
         C         C         1.0       0.6934455064209892  0.9866932367370902  0.5273076777075001 1.0000   
         C         C         1.0       0.7084831171406716  0.004989274745761607         0.47919232462391637          1.0000   
         H         H         1.0       0.720063904860142   0.9909513979687361  0.5474585375899524 1.0000   
         H         H         1.0       0.6833608257073341  0.0032576254532095117        0.5432539271064654 1.0000   
         H         H         1.0       0.6831243235802624  0.9871541145336089  0.4574713038972148 1.0000   
         H         H         1.0       0.7324555706281636  0.00020755602742217327       0.4709116479210088 1.0000   
         C         C         1.0       0.4004032993384964  0.5880620479276498  0.9293439504102787 1.0000   
         C         C         1.0       0.4202302897817318  0.6044132789873421  0.9708931725872015 1.0000   
         H         H         1.0       0.4209423528297383  0.585468534260071   0.9102278066612436 1.0000   
         H         H         1.0       0.39162960915384987           0.6069798971513761 0.9088049227511414 1.0000   
         H         H         1.0       0.4258934362900828  0.5840935502765696  0.989931118272855  1.0000   
         H         H         1.0       0.40075978731272693           0.6060812132243882 0.9938283760816076 1.0000   
         C         C         1.0       0.7280049175473293  0.021845263010570992         0.02287534572689881          1.0000   
         C         C         1.0       0.7261845476392996  0.038087972516853696         0.9775409871149867 1.0000   
         H         H         1.0       0.7307747933242743  0.03992025743217797           0.047893226007510316         1.0000   
         H         H         1.0       0.7579802054671047  0.0241201475551438  0.02403671904089407          1.0000   
         H         H         1.0       0.7475132858181844  0.04052013727253214           0.9538968224532319 1.0000   
         H         H         1.0       0.6976537835765223  0.018918339119100576         0.9648937986052109 1.0000   
         C         C         1.0       0.5967081819501029  0.8086273439367835  0.769975665381663  1.0000   
         C         C         1.0       0.5647372707408468  0.7813795606461309  0.7425086916480835 1.0000   
         H         H         1.0       0.5960611257105972  0.8356585932372078  0.7671810362000291 1.0000   
         H         H         1.0       0.6245810718405119  0.8171075464528774  0.7513246527439486 1.0000   
         H         H         1.0       0.5588150002017074  0.7514025823379187  0.7449498377320045 1.0000   
         H         H         1.0       0.5375535896428875  0.7773111171222115  0.7560729832265782 1.0000   
         C         C         1.0       0.6063968296835844  0.8293203898617426  0.24877532891115792          1.0000   
         C         C         1.0       0.5715945256700207  0.7868502712837627  0.2601622537096164 1.0000   
         H         H         1.0       0.6359605410492644  0.8329248067793038  0.2598450434886528 1.0000   
         H         H         1.0       0.604594282853609   0.8490530273576987  0.2649090323854649 1.0000   
         H         H         1.0       0.5732009052851512  0.7685597428468418  0.2404839671447498 1.0000   
         H         H         1.0       0.5424336923277319  0.7848377814116565  0.24965207731353864          1.0000   
         C         C         1.0       0.8639137225830817  0.4381040314396781  0.5040812750164718 1.0000   
         C         C         1.0       0.8670893737373717  0.4223220677040843  0.5526657825896757 1.0000   
         H         H         1.0       0.8907227817748377  0.4424440171300388  0.4874417581162119 1.0000   
         H         H         1.0       0.8370367419076508  0.4150450631081079  0.49075219986006446          1.0000   
         H         H         1.0       0.8436101685830264  0.42229693025095005           0.5701587740513091 1.0000   
         H         H         1.0       0.8949641973409594  0.4438536292302036  0.5663890910952579 1.0000   
         C         C         1.0       0.6865361246609378  0.6848082563315248  0.5534306726286876 1.0000   
         C         C         1.0       0.6670318782802821  0.6732416442469289  0.5084442597548112 1.0000   
         H         H         1.0       0.7097600653329257  0.7149846053789395  0.5459308433517623 1.0000   
         H         H         1.0       0.6636822094943311  0.6810432308753693  0.575095737875297  1.0000   
         H         H         1.0       0.6536346289447628  0.6426693010533748  0.511620953406561  1.0000   
         H         H         1.0       0.6920900066967193  0.6837627371313162  0.4840681311789803 1.0000   
         C         C         1.0       0.8920622067266525  0.4460608128632525  0.06928980900906637          1.0000   
         C         C         1.0       0.8960672714502688  0.46356320663267575           0.019112729469535836         1.0000   
         H         H         1.0       0.8645445628962916  0.4423251687835276  0.08368365690576844          1.0000   
         H         H         1.0       0.9162939470094632  0.46451751957469556           0.08984591193668208          1.0000   
         H         H         1.0       0.878560432179836   0.4423049273921864  0.9967807024629267 1.0000   
         H         H         1.0       0.9269551001214551  0.4748683323793644  0.00747121334339968          1.0000   
         C         C         1.0       0.7062070691576529  0.7111576666625974  0.06274465802208092          1.0000   
         C         C         1.0       0.6927560731921913  0.7120492040528574  0.015177871433443109         1.0000   
         H         H         1.0       0.6824640510017058  0.7016841840836293  0.08708008434161213          1.0000   
         H         H         1.0       0.7317332877588031  0.7379439788113024  0.06991846063374388          1.0000   
         H         H         1.0       0.7189328182356075  0.7317513776050112  0.9944513942323319 1.0000   
         H         H         1.0       0.6803169682749598  0.6827054033449496  0.005524142553411709         1.0000   
         C         C         1.0       0.8158901020577863  0.5703980105495616  0.7928871621507178 1.0000   
         C         C         1.0       0.8016125324491771  0.5979857859492854  0.7743846234798846 1.0000   
         H         H         1.0       0.8395160208614301  0.5749248688967725  0.7695924766578439 1.0000   
         H         H         1.0       0.7933234639576591  0.5391204764556793  0.7901275362758781 1.0000   
         H         H         1.0       0.7807605707456194  0.5974232806562678  0.7975169532665124 1.0000   
         H         H         1.0       0.8276475847828118  0.6302927293863676  0.7707885708075896 1.0000   
         C         C         1.0       0.8064737590872506  0.5715639952116899  0.28499856538210383          1.0000   
         C         C         1.0       0.7871818874385724  0.5965173164812984  0.27604092398004165          1.0000   
         H         H         1.0       0.7875604880964568  0.5411173088429402  0.27771469693378836          1.0000   
         H         H         1.0       0.8311293607586123  0.5823360511412522  0.2628604246059132 1.0000   
         H         H         1.0       0.8061794680670725  0.6246242480515894  0.2884575879373066 1.0000   
         H         H         1.0       0.7610868393585335  0.5859257581320947  0.2989360887161207 1.0000   
         C         C         1.0       0.37413498116096183           0.7824320656787321 0.5132329145558794 1.0000   
         C         C         1.0       0.40963782509481256           0.821213306549749  0.5197492304815401 1.0000   
         H         H         1.0       0.3764297106376936  0.7614640579095612  0.5357366144818718 1.0000   
         H         H         1.0       0.37461513216478065           0.7725727386731722 0.4812393104849018 1.0000   
         H         H         1.0       0.41457561395563625           0.8425734478170659 0.48797862853866364          1.0000   
         H         H         1.0       0.4066219433158391  0.8353050226588293  0.545023155326324  1.0000   
         C         C         1.0       0.10507104223459288           0.5510094270630818 0.4574616773683406 1.0000   
         C         C         1.0       0.10200509739622907           0.5391389105587582 0.507611576344851  1.0000   
         H         H         1.0       0.07840399237618402           0.5328265470689268 0.4415881189011587 1.0000   
         H         H         1.0       0.1277936360274188  0.5481375600165592  0.4419871232275903 1.0000   
         H         H         1.0       0.07186276264543733           0.5334129376152299 0.5166223819355891 1.0000   
         H         H         1.0       0.12325843015279549           0.5621142934959812 0.52818770419705   1.0000   
         C         C         1.0       0.021920182001320714          0.742987823979045  0.4702670389938547 1.0000   
         C         C         1.0       0.9902445994270374  0.7182712150632451  0.5068819961250431 1.0000   
         H         H         1.0       0.041498806108623554          0.7694837627977917 0.4840530608340989 1.0000   
         H         H         1.0       0.01002923909207154           0.7531509016735939 0.4428602384274864 1.0000   
         H         H         1.0       0.976351310095972   0.7344336362160935  0.5162294591929111 1.0000   
         H         H         1.0       0.006334404227309311          0.7142690269267592 0.5367284404807539 1.0000   
         C         C         1.0       0.4162212400054547  0.8475460634827907  0.9966183608571707 1.0000   
         C         C         1.0       0.4471861416663589  0.8691189522023223  0.028642308214948755         1.0000   
         H         H         1.0       0.41254390205360936           0.8190655275304811 0.9973932866387668 1.0000   
         H         H         1.0       0.4254347424493137  0.8588088626512369  0.9618889348270359 1.0000   
         H         H         1.0       0.4327771564899715  0.8675789734823331  0.05945363610928934          1.0000   
         H         H         1.0       0.4574336565754855  0.8991205284259208  0.01751999870957753          1.0000   
         C         C         1.0       0.13769476964280364           0.5863838199213306 0.9705232960449276 1.0000   
         C         C         1.0       0.13796160570041371           0.5756582750275535 0.020422468327781385         1.0000   
         H         H         1.0       0.10962333739359092           0.5643396232283284 0.9575906450724849 1.0000   
         H         H         1.0       0.16012222137477594           0.5827070755557688 0.9551841104334392 1.0000   
         H         H         1.0       0.11248986856327597           0.5759162949927107 0.0340922036114654 1.0000   
         H         H         1.0       0.16187330558722726           0.6009006602298426 0.03361650743736821          1.0000   
         C         C         1.0       0.035208490770321496          0.7630498634810955 0.9958207709722575 1.0000   
         C         C         1.0       0.9938536316961656  0.7549174394810231  0.9790270913340864 1.0000   
         H         H         1.0       0.03266451957787531           0.751743819323682  0.02905297191897438          1.0000   
         H         H         1.0       0.05569211511553104           0.7929563610304374 0.0013341275018470267        1.0000   
         H         H         1.0       0.9964839369267925  0.7714439735923687  0.9461709950061942 1.0000   
         H         H         1.0       0.978443066476482   0.7631324233223029  0.0020469858747902414        1.0000   
         C         C         1.0       0.17668320336411952           0.7640284921309144 0.7361284696101167 1.0000   
         C         C         1.0       0.19814465018524835           0.8050344039725092 0.7146121038645953 1.0000   
         H         H         1.0       0.1906091303491867  0.7500950824944442  0.7227267864807767 1.0000   
         H         H         1.0       0.1472063759577771  0.7456528634356632  0.7210540254051874 1.0000   
         H         H         1.0       0.22266605391280653           0.8217707581111753 0.7348441473281563 1.0000   
         H         H         1.0       0.18105465423107545           0.8178947589546665 0.718237043601905  1.0000   
         C         C         1.0       0.22070840144965326           0.7891548545091415 0.2241475476683133 1.0000   
         C         C         1.0       0.21425817358397659           0.7498445091305674 0.241571353416232  1.0000   
         H         H         1.0       0.24230170485856364           0.8107464891506722 0.24407725171156172          1.0000   
         H         H         1.0       0.19228256655709017           0.7845584895931093 0.23123022173360863          1.0000   
         H         H         1.0       0.19453670115054442           0.7292037232296836 0.21720769641401189          1.0000   
         H         H         1.0       0.2433542144750091  0.7512348963900595  0.24330613065873133          1.0000   
         C         C         1.0       0.5892137564001622  0.40017899307967597           0.5958137050944611 1.0000   
         C         C         1.0       0.611798342704205   0.42910210202246196           0.5556936570416845 1.0000   
         H         H         1.0       0.5863004844677726  0.4126609494033524  0.6241485049351696 1.0000   
         H         H         1.0       0.6072160303218899  0.38799995720176816           0.6087794815177379 1.0000   
         H         H         1.0       0.5915494944162075  0.4348013396007855  0.5338811897084359 1.0000   
         H         H         1.0       0.6259274223552919  0.4179357390178767  0.5360800774911332 1.0000   
         C         C         1.0       0.5922404835390367  0.19547516313850155           0.4846549261823054 1.0000   
         C         C         1.0       0.600451447262386   0.17337370833858753           0.45137963473914633          1.0000   
         H         H         1.0       0.6130867484230085  0.22597036358635175           0.4772481483496536 1.0000   
         H         H         1.0       0.5950107189815367  0.18489989714104224           0.5199014333851567 1.0000   
         H         H         1.0       0.5980958703248963  0.18697750905462962           0.419695397791467  1.0000   
         H         H         1.0       0.5762944107901705  0.14489787633053777           0.4539270663788755 1.0000   
         C         C         1.0       0.31451446449767    0.9976993230406277  0.5042351579696221 1.0000   
         C         C         1.0       0.30955807892818327           0.9769331847949378 0.46464569462506766          1.0000   
         H         H         1.0       0.32582279303799355           0.9884799749459801 0.5331714141468198 1.0000   
         H         H         1.0       0.2848051777553274  0.9931376521167314  0.5172557479795914 1.0000   
         H         H         1.0       0.3373780903061811  0.9882764159152729  0.4473270657631341 1.0000   
         H         H         1.0       0.29175941804326666           0.9822684433566353 0.44300978170838734          1.0000   
         C         C         1.0       0.28789079583346433           0.3002971605225428 0.5024557173509986 1.0000   
         C         C         1.0       0.30979782044596926           0.29290148204172944          0.46945277627099447          1.0000   
         H         H         1.0       0.26050500858271375           0.2734048233634811 0.5155718549371768 1.0000   
         H         H         1.0       0.3012785233505832  0.3081586220197517  0.5342371269535419 1.0000   
         H         H         1.0       0.3237712805904735  0.31730587415310374           0.44244652536301254          1.0000   
         H         H         1.0       0.2868085613775098  0.2703634601815042  0.45103345943305084          1.0000   
         C         C         1.0       0.4203378722747194  0.2284198168596605  0.7843381328758843 1.0000   
         C         C         1.0       0.38712520350391616           0.20875132554523054          0.7526087036977579 1.0000   
         H         H         1.0       0.42804272185571823           0.25715895698334057          0.781387805219655  1.0000   
         H         H         1.0       0.44733882279362647           0.23231636130574312          0.7693502055348376 1.0000   
         H         H         1.0       0.3621738198889305  0.20895400467941583           0.7652401813907768 1.0000   
         H         H         1.0       0.37535732974777897           0.17654959001485832          0.7572345986643026 1.0000   
         C         C         1.0       0.4253484403612027  0.23166035978785957           0.2657257376364528 1.0000   
         C         C         1.0       0.38770701684882464           0.1938080658774963 0.28001605431872006          1.0000   
         H         H         1.0       0.4510344670828075  0.2285310605980777  0.27452173028057913          1.0000   
         H         H         1.0       0.42899640031385516           0.2555538193972046 0.2853141775131054 1.0000   
         H         H         1.0       0.3815188207848276  0.17397794466584085           0.2562256725172826 1.0000   
         H         H         1.0       0.36138451738271066           0.1951451323652083 0.28189072854648833          1.0000   
         C         C         1.0       0.6242439262326881  0.4426205300834364  0.04734780868154163          1.0000   
         C         C         1.0       0.5914309784872978  0.42464531495686314           0.08442318905334929          1.0000   
         H         H         1.0       0.6118724213683644  0.4455287681758353  0.01684547939377749          1.0000   
         H         H         1.0       0.6316259138981589  0.4216398838352714  0.041841233193446764         1.0000   
         H         H         1.0       0.5855943148299728  0.44715755918635236           0.09665376249414681          1.0000   
         H         H         1.0       0.6037545770295176  0.4164292393521132  0.1119261979463827 1.0000   
         C         C         1.0       0.6002057902392983  0.19278463940354307           0.01640892697151785          1.0000   
         C         C         1.0       0.5690600351060127  0.16243168197234353           0.9943367118723552 1.0000   
         H         H         1.0       0.591756636636277   0.18519921350900315           0.050893521362731745         1.0000   
         H         H         1.0       0.6051590990207872  0.22141782253094736           0.004493830616581786         1.0000   
         H         H         1.0       0.5785354685667248  0.1626473481675303  0.9614124936157683 1.0000   
         H         H         1.0       0.5617653686459535  0.13502190303922515           0.013733398555057497         1.0000   
         C         C         1.0       0.2915552341952161  0.014292815169949078         0.9882694967699167 1.0000   
         C         C         1.0       0.2863580404308963  0.9964706875096663  0.035643036030663384         1.0000   
         H         H         1.0       0.2636459727845347  0.013655763522509195         0.9766565521866845 1.0000   
         H         H         1.0       0.2990880352532674  0.0011589157871942923        0.9662204571058025 1.0000   
         H         H         1.0       0.26003288623730486           0.9944954431510797 0.04907671946860098          1.0000   
         H         H         1.0       0.30991023858348254           0.01639197642276269          0.05373964531560401          1.0000   
         C         C         1.0       0.30255686784230207           0.3262335650262872 0.009855648017366603         1.0000   
         C         C         1.0       0.3202643569930057  0.3090246050081634  0.9830674288560743 1.0000   
         H         H         1.0       0.326779595146543   0.3478852383869515  0.02736230053068777          1.0000   
         H         H         1.0       0.2841334973875695  0.30434293450295824           0.03746069271799127          1.0000   
         H         H         1.0       0.3371549390032722  0.32940174877987577           0.9543774747318493 1.0000   
         H         H         1.0       0.2991250926526256  0.2805078096386067  0.9707029381715327 1.0000

