data_0
_chemical_formula_structural 
                                        C6H4C38H24C6H4C38H24C6H4C38H24C6H4C38H24C6H4C38H24C6H4C38H24C6H4C38H24C6H4C38H24C6H4C38H24C6H4C38H24C6H4C38H24C6H4C38H24C6H4C38H24C6H4C38H24C6H4C38H24C6H4C38H24C2H4C2H4C2H4C2H4C2H4C2H4C2H4C2H4C2H4C2H4C2H4C2H4C2H4C2H4C2H4C2H4C2H4C2H4C2H4C2H4C2H4C2H4C2H4C2H4C2H4C2H4C2H4C2H4C2H4C2H4C2H4C2H4C2H4C2H4C2H4C2H4C2H4C2H4C2H4C2H4C2H4C2H4C2H4C2H4C2H4C2H4C2H4C2H4C6H4C38H24C6H4C38H24C6H4C38H24C6H4C38H24C6H4C38H24C6H4C38H24C6H4C38H24C6H4C38H24C6H4C38H24C6H4C38H24C6H4C38H24C6H4C38H24C6H4C38H24C6H4C38H24C6H4C38H24C6H4C38H24C2H4C2H4C2H4C2H4C2H4C2H4C2H4C2H4C2H4C2H4C2H4C2H4C2H4C2H4C2H4C2H4C2H4C2H4C2H4C2H4C2H4C2H4C2H4C2H4C2H4C2H4C2H4C2H4C2H4C2H4C2H4C2H4C2H4C2H4C2H4C2H4C2H4C2H4C2H4C2H4C2H4C2H4C2H4C2H4C2H4C2H4C2H4C2H4
_chemical_formula_sum                   'C1600 H1280'
_cell_length_a                          41.44537569601144
_cell_length_b                          42.295212121215634
_cell_length_c                          32.67209937122264
_cell_angle_alpha                       91.06678987834866
_cell_angle_beta                        91.96348929626973
_cell_angle_gamma                       89.31650895748012
_space_group_name_H-M_alt               'P 1'
_space_group_IT_number                  1
loop_
  _space_group_symop_operation_xyz
         'x, y, z' 
loop_
  _atom_site_type_symbol
  _atom_site_label
  _atom_site_symmetry_multiplicity
  _atom_site_fract_x
  _atom_site_fract_y
  _atom_site_fract_z
  _atom_site_occupancy
         C         C         1.0       0.14489995292292868           0.34082252375071775          0.25276541043404843          1.0000   
         C         C         1.0       0.1480644931236157  0.3151888125194886  0.22735250013635083          1.0000   
         C         C         1.0       0.12599471230271408           0.292574401107128  0.22383657723220368          1.0000   
         C         C         1.0       0.09706739481046456           0.2956763283657618 0.2457228559185069 1.0000   
         C         C         1.0       0.0940783735364421  0.32219023514991596           0.2715492259194079 1.0000   
         C         C         1.0       0.11774109634107255           0.34480946304492394          0.27490166951349126          1.0000   
         H         H         1.0       0.16969104092139387           0.3135740756477118 0.21109773207768137          1.0000   
         H         H         1.0       0.12995090563580702           0.27096512118139915          0.20620971875157534          1.0000   
         H         H         1.0       0.07321214683059551           0.3269474171313084 0.28925599095005966          1.0000   
         H         H         1.0       0.11544787180558624           0.3652710578131122 0.29623667420537375          1.0000   
         C         C         1.0       0.030706845666534477          0.2869134970428059 0.2987200624660669 1.0000   
         C         C         1.0       0.03703931969672625           0.28090719388598967          0.25798213139185944          1.0000   
         C         C         1.0       0.013035147207345332          0.28964682659578544          0.22793663370052397          1.0000   
         C         C         1.0       0.9871590491515965  0.30596739364846265           0.23856742354155597          1.0000   
         C         C         1.0       0.9826977129311427  0.3135884395115872  0.2777630851161327 1.0000   
         C         C         1.0       0.0024466434259282632         0.30311609460489813          0.3091379105725892 1.0000   
         C         C         1.0       0.07125648543164886           0.2669927103344093 0.24611166780200658          1.0000   
         C         C         1.0       0.08611607713047498           0.2420108909320136 0.2795162167817298 1.0000   
         C         C         1.0       0.06448746084738133           0.2232657114495058 0.2993087099538261 1.0000   
         C         C         1.0       0.07402473198276982           0.20557353528745523          0.3319939038415085 1.0000   
         C         C         1.0       0.10579913755700443           0.20659104628906347          0.34557610732121213          1.0000   
         C         C         1.0       0.12780218328589088           0.22349103584285557          0.3262897942056915 1.0000   
         C         C         1.0       0.11891206790369035           0.2434178282677878 0.29531474685918613          1.0000   
         C         C         1.0       0.07427208213879055           0.2603757120994649 0.1676052637354227 1.0000   
         C         C         1.0       0.06181412172989753           0.2482955020644337 0.13175130739387356          1.0000   
         C         C         1.0       0.04242392076052304           0.22196772738436366          0.13051289580628572          1.0000   
         C         C         1.0       0.03643077140010198           0.20712622140919904          0.16567452827506726          1.0000   
         C         C         1.0       0.04848704320332664           0.21837407901538336          0.2033449117784713 1.0000   
         C         C         1.0       0.06590098809372646           0.24653408588323983          0.20423471106707672          1.0000   
         C         C         1.0       0.024855107929337317          0.21233740112686222          0.08706536795151076          1.0000   
         C         C         1.0       0.9483829763500397  0.2866207845186517  0.09351589809850268          1.0000   
         C         C         1.0       0.9775082852614051  0.29290352958838844           0.07720164803812901          1.0000   
         C         C         1.0       0.9999578157163815  0.2684495472164505  0.07224727531499098          1.0000   
         C         C         1.0       0.995850274865999   0.23878213068334483           0.08800815208325052          1.0000   
         C         C         1.0       0.9660485264134465  0.2329844346346536  0.10696915139836882          1.0000   
         C         C         1.0       0.9426566820520073  0.2563041644027141  0.10843648093781842          1.0000   
         C         C         1.0       0.0112684478200058  0.17699318182167892           0.08249336265904295          1.0000   
         C         C         1.0       0.02714509143001953           0.15198521122509673          0.09947816590095648          1.0000   
         C         C         1.0       0.0072240527668239185         0.7197089116676312 0.3230516685997921 1.0000   
         C         C         1.0       0.0013042830038887399         0.6913232086391621 0.33816321227695667          1.0000   
         C         C         1.0       0.001642216206654723          0.6657517535526363 0.31171436061210356          1.0000   
         C         C         1.0       0.007609176309556931          0.669195655767012  0.27025058662397733          1.0000   
         C         C         1.0       0.036582586838067144          0.21996593092782285          0.012478757897749437         1.0000   
         C         C         1.0       0.0777509871394535  0.6347237996289385  0.1729513300786465 1.0000   
         C         C         1.0       0.106866753948482   0.6462540059454931  0.18776666773503536          1.0000   
         C         C         1.0       0.10773331935526986           0.6731418621105645 0.21214090526038257          1.0000   
         C         C         1.0       0.08079707033670713           0.20406322489039777          0.05432869411845397          1.0000   
         C         C         1.0       0.048703635558149605          0.21137283159603784          0.049931562935319196         1.0000   
         H         H         1.0       0.048289396162031206          0.2800450410804825 0.3238674950214913 1.0000   
         H         H         1.0       0.017182185798159333          0.28341054541400595          0.19682481991701534          1.0000   
         H         H         1.0       0.9706596343571382  0.3155779114817095  0.21695852841689575          1.0000   
         H         H         1.0       0.9936976167033886  0.3047696155502976  0.3411602047296179 1.0000   
         H         H         1.0       0.039917050566849355          0.22269541834240214          0.29127200637165807          1.0000   
         H         H         1.0       0.05606440011947522           0.1952624097322436 0.3508925581436741 1.0000   
         H         H         1.0       0.15260269607106025           0.22082076823360475          0.33469864561451995          1.0000   
         H         H         1.0       0.13757530678825947           0.2598267896206936 0.28573971350798466          1.0000   
         H         H         1.0       0.08080532195078605           0.2848606194447701 0.16680050429137128          1.0000   
         H         H         1.0       0.0633354770329293  0.263721853639254   0.10535307916625868          1.0000   
         H         H         1.0       0.015632715283116605          0.18988735432000267          0.1693190237858307 1.0000   
         H         H         1.0       0.0407035263110096  0.20823290003643233           0.23010340851681477          1.0000   
         H         H         1.0       0.9844466685699188  0.3144552594519906  0.06823672269698489          1.0000   
         H         H         1.0       0.02217804583778915           0.27476325922116684          0.0603823906424934 1.0000   
         H         H         1.0       0.9621936623981715  0.21110093930057905           0.12095062732423978          1.0000   
         H         H         1.0       0.9188475918855169  0.25120326260471937           0.1198426554061105 1.0000   
         H         H         1.0       0.046110924844791956          0.15599633291729442          0.12166314828751479          1.0000   
         H         H         1.0       0.008076250127151408          0.7418120712806162 0.34038478985795606          1.0000   
         H         H         1.0       0.9878615522824296  0.6437173846360451  0.31811528104283454          1.0000   
         H         H         1.0       0.9719571305161353  0.1911475336195795  0.040786378780492294         1.0000   
         H         H         1.0       0.012779607767572587          0.22849686443004302          0.008907448376596294         1.0000   
         H         H         1.0       0.07680294171462654           0.610807434845963  0.1597581970396218 1.0000   
         H         H         1.0       0.12952857358065795           0.6780169530885678 0.2273645945003758 1.0000   
         H         H         1.0       0.08984327179540808           0.19210587079806662          0.08245540857093524          1.0000   
         C         C         1.0       0.8275691645509254  0.24390114879747304           0.02968240137196254          1.0000   
         C         C         1.0       0.797182478644812   0.23231106930418344           0.019684908096286202         1.0000   
         C         C         1.0       0.7704499846310509  0.24814454704922986           0.03213254271108057          1.0000   
         C         C         1.0       0.7725072967201724  0.2757389069850625  0.05753854091973665          1.0000   
         C         C         1.0       0.8044720340245632  0.2852122772507997  0.06683091961560472          1.0000   
         C         C         1.0       0.8306250726133924  0.26907772160843413           0.05478266971648127          1.0000   
         H         H         1.0       0.7919910496428567  0.2129843192778292  0.9975758708097571 1.0000   
         H         H         1.0       0.7477591661492132  0.24084788284150183           0.018082797934818373         1.0000   
         H         H         1.0       0.8128172648491804  0.30390452664160467           0.08863520858427276          1.0000   
         H         H         1.0       0.8551473873303587  0.2773646411423268  0.06286160586082401          1.0000   
         C         C         1.0       0.7014027555178795  0.25066780344281114           0.0895659670820308 1.0000   
         C         C         1.0       0.7291913411664255  0.26752202109414336           0.10282264084200299          1.0000   
         C         C         1.0       0.7467125722354008  0.2563495718307063  0.13738421511098364          1.0000   
         C         C         1.0       0.7358958580666102  0.23189420987296844           0.1599289526651566 1.0000   
         C         C         1.0       0.7090213368334383  0.21544653571418815           0.1460555572915052 1.0000   
         C         C         1.0       0.6916840514655738  0.22514399495116746           0.11193173503650233          1.0000   
         C         C         1.0       0.7435325177883462  0.2952594117396252  0.07516223318974924          1.0000   
         C         C         1.0       0.7191712661901527  0.30807586317240226           0.03905559472081044          1.0000   
         C         C         1.0       0.6893968706915481  0.3208239216955738  0.050209548126531  1.0000   
         C         C         1.0       0.6679081171997291  0.3313224908048548  0.02069170510590057          1.0000   
         C         C         1.0       0.6752053862157016  0.32794112294830213           0.9801504770941047 1.0000   
         C         C         1.0       0.7057028290159103  0.31821395159460514           0.9693281255546357 1.0000   
         C         C         1.0       0.7278284029602844  0.30789249411622543           0.9987945715977473 1.0000   
         C         C         1.0       0.7692216995991574  0.35014362167115065           0.0873150470525923 1.0000   
         C         C         1.0       0.7822669303428023  0.3730142866879156  0.11457499654722048          1.0000   
         C         C         1.0       0.777653141946726   0.3743226978644617  0.155333711628459  1.0000   
         C         C         1.0       0.7571838323508485  0.353357149494652   0.1696019125042305 1.0000   
         C         C         1.0       0.7442964582302387  0.3285165766978363  0.1453808534478751 1.0000   
         C         C         1.0       0.7520987858287187  0.3251874197498597  0.10340464856804887          1.0000   
         C         C         1.0       0.8006178869276477  0.39377329217320883           0.18767259480827936          1.0000   
         C         C         1.0       0.8909904415068147  0.34389101541815814           0.1525876037792637 1.0000   
         C         C         1.0       0.8832972848433039  0.3744840541767501  0.1388209840571224 1.0000   
         C         C         1.0       0.8568960896188015  0.3885735905861418  0.15042860482064713          1.0000   
         C         C         1.0       0.8356398187841424  0.37585057032333635           0.17749331931230317          1.0000   
         C         C         1.0       0.8413809003246344  0.34479710390598806           0.18872449838409178          1.0000   
         C         C         1.0       0.8692717908859485  0.32868716941874954           0.1763985470512939 1.0000   
         C         C         1.0       0.7907968288937333  0.3966321932042597  0.2358424898634781 1.0000   
         C         C         1.0       0.7606089879139578  0.4058199742750327  0.2491751068349064 1.0000   
         C         C         1.0       0.7553275857439665  0.4125950453910077  0.2913156333767737 1.0000   
         C         C         1.0       0.7815161111496916  0.41140299025192006           0.3183543291194939 1.0000   
         C         C         1.0       0.8115270408394127  0.40471411511383737           0.30610117712630786          1.0000   
         C         C         1.0       0.8164579976163475  0.39467303532291076           0.26690782222865916          1.0000   
         C         C         1.0       0.8239101602123091  0.45222214478464884           0.19253369512548613          1.0000   
         C         C         1.0       0.8252815805393888  0.48376703060298104           0.1810901255666031 1.0000   
         C         C         1.0       0.8047541075526686  0.4940009288280817  0.14991740860443348          1.0000   
         C         C         1.0       0.7813878563026807  0.47446476657279896           0.13357463892733157          1.0000   
         C         C         1.0       0.7791616923493955  0.44361440932747465           0.14724225351306353          1.0000   
         C         C         1.0       0.8010889581266027  0.43050527365442626           0.17654749475545017          1.0000   
         H         H         1.0       0.6888928711165271  0.25269506709624484           0.061078057158429955         1.0000   
         H         H         1.0       0.7678700371881961  0.26830816196777907           0.1501192757796086 1.0000   
         H         H         1.0       0.7499942518288831  0.2268092130666843  0.18764449893054147          1.0000   
         H         H         1.0       0.6703734418099285  0.21259182328448795           0.09798361376058073          1.0000   
         H         H         1.0       0.6824253932751426  0.3169147222229106  0.08209782460051263          1.0000   
         H         H         1.0       0.6446355318745371  0.3409524766136965  0.029650062561556112         1.0000   
         H         H         1.0       0.7105861928181729  0.31745765487030236           0.9366651203464663 1.0000   
         H         H         1.0       0.7510396657668491  0.3016796162608803  0.9865921656368677 1.0000   
         H         H         1.0       0.7725250272202464  0.354120600697948   0.05456479348228771          1.0000   
         H         H         1.0       0.7977971024464522  0.39054021285890084           0.10160967678898469          1.0000   
         H         H         1.0       0.7505989113899383  0.35505484575297813           0.20211575442084673          1.0000   
         H         H         1.0       0.7254390874785797  0.31626300294372994           0.15990332729632972          1.0000   
         H         H         1.0       0.8976005952958698  0.3844697524021177  0.11815980489014466          1.0000   
         H         H         1.0       0.8507710034669956  0.41290660715295213           0.1390804875673035 1.0000   
         H         H         1.0       0.8260031794036371  0.33564769609888734           0.21234869789016877          1.0000   
         H         H         1.0       0.8727106318095951  0.3042050035642612  0.18419612311255565          1.0000   
         H         H         1.0       0.7428037507271026  0.40919452828985425           0.22316880852699494          1.0000   
         H         H         1.0       0.7319716048932844  0.41654829612518857           0.30226262893620537          1.0000   
         H         H         1.0       0.8318508458477664  0.40428001105983585           0.327970909430448  1.0000   
         H         H         1.0       0.839784462989112   0.38568330881122725           0.2617475205178214 1.0000   
         H         H         1.0       0.8419422955267414  0.44508328421374493           0.21603380972013975          1.0000   
         H         H         1.0       0.8456796032810985  0.4978138336153304  0.19225846616630005          1.0000   
         H         H         1.0       0.7634095528511652  0.48485421293417236           0.11015481602201316          1.0000   
         H         H         1.0       0.7576856371657513  0.43065782910513567           0.13514234529074787          1.0000   
         C         C         1.0       0.05817414418249833           0.4932633305041369 0.9584580455454027 1.0000   
         C         C         1.0       0.06544969063047623           0.46392145494497744          0.9737297896574709 1.0000   
         C         C         1.0       0.07046491408148792           0.460549166068277  0.015613749126236254         1.0000   
         C         C         1.0       0.07180322430878672           0.4871456534252673 0.04286626400642657          1.0000   
         C         C         1.0       0.06440961444942883           0.5153286399634192 0.02590243787542179          1.0000   
         C         C         1.0       0.05816930011716859           0.5192259084120613 0.9844721819728391 1.0000   
         H         H         1.0       0.06780347133868103           0.4419468835039946 0.9538090498823193 1.0000   
         H         H         1.0       0.07559371848325891           0.436473642236844  0.02664572457443115          1.0000   
         H         H         1.0       0.061679375606296105          0.5348073155439143 0.047714480286179084         1.0000   
         H         H         1.0       0.05198535489085043           0.5441977286969043 0.9771882773406892 1.0000   
         C         C         1.0       0.1227559757703105  0.5316838984056826  0.08497904205964435          1.0000   
         C         C         1.0       0.10085383215990529           0.5156933846509524 0.10818173103571227          1.0000   
         C         C         1.0       0.10047419593540563           0.5246673985459835 0.14969723726595907          1.0000   
         C         C         1.0       0.11328400033648056           0.5539499187674969 0.16258852487230735          1.0000   
         C         C         1.0       0.13155246861036107           0.572204762435596  0.13840907673905267          1.0000   
         C         C         1.0       0.1368731553251299  0.5606117844446648  0.09814240863685786          1.0000   
         C         C         1.0       0.08188490552874694           0.4862039914865414 0.09199082940443604          1.0000   
         C         C         1.0       0.10739812079005362           0.45945078911213544          0.10308946077470393          1.0000   
         C         C         1.0       0.10527533202282613           0.4407532396821618 0.1371330160902513 1.0000   
         C         C         1.0       0.12958034404181196           0.42048016188871906          0.14955557041867373          1.0000   
         C         C         1.0       0.15770643121516548           0.41853986309673036          0.12924707060477258          1.0000   
         C         C         1.0       0.15896182050021546           0.43406416283662436          0.09265941899185193          1.0000   
         C         C         1.0       0.1356768932945034  0.4548721846901664  0.08098884396004102          1.0000   
         C         C         1.0       0.02842976010397824           0.5079923562341726 0.11605489312971362          1.0000   
         C         C         1.0       0.9995691003059134  0.5047854723363739  0.1325942486225633 1.0000   
         C         C         1.0       0.9876108039919808  0.4747527779095833  0.14186978277475037          1.0000   
         C         C         1.0       0.0026959005455393648         0.4490249706318617 0.12236068211894602          1.0000   
         C         C         1.0       0.03224357099824493           0.45158302451102517          0.10699809285743234          1.0000   
         C         C         1.0       0.04646500907925577           0.4814129142361445 0.10639474440104446          1.0000   
         C         C         1.0       0.9624383129692973  0.4686709468237415  0.17651720497936818          1.0000   
         C         C         1.0       0.9977614669227297  0.5160697454921949  0.289549998637621  1.0000   
         C         C         1.0       0.9646736436794573  0.5081043391024788  0.2841287358967324 1.0000   
         C         C         1.0       0.9540993667950425  0.4944924506070468  0.2483522222493284 1.0000   
         C         C         1.0       0.9749956183958246  0.4846394933021994  0.21873254650936325          1.0000   
         C         C         1.0       0.008588136572121652          0.489708297607245  0.22735315724226912          1.0000   
         C         C         1.0       0.01973877881268793           0.5056049392918983 0.26184272636103056          1.0000   
         C         C         1.0       0.9545470208850825  0.4343842040329717  0.19380534032068253          1.0000   
         C         C         1.0       0.9241995465741463  0.4283465400275513  0.20728475254134127          1.0000   
         C         C         1.0       0.9172822627898053  0.400755214738695   0.22888522426270397          1.0000   
         C         C         1.0       0.9414351458077302  0.37945975524567827           0.23706534046165761          1.0000   
         C         C         1.0       0.9720765812208667  0.38637885091138663           0.2270764576555842 1.0000   
         C         C         1.0       0.9791453450018446  0.41256291226551695           0.20519615605637598          1.0000   
         C         C         1.0       0.9117300678673372  0.4702623650574903  0.1262136370705218 1.0000   
         C         C         1.0       0.8844103906918522  0.4836660605684372  0.10774040577249866          1.0000   
         C         C         1.0       0.8757956016303662  0.5129932589484177  0.11712536566974596          1.0000   
         C         C         1.0       0.8938157028592308  0.5308196374879566  0.14423139778350547          1.0000   
         C         C         1.0       0.9211871982503297  0.5177558738893557  0.1644426095550735 1.0000   
         C         C         1.0       0.9306455726737868  0.48709064087420795           0.15467336350747551          1.0000   
         H         H         1.0       0.12995833161758208           0.5232858751944166 0.05522684565875435          1.0000   
         H         H         1.0       0.08820768995061168           0.5102149328553602 0.17079778666989065          1.0000   
         H         H         1.0       0.11520341734933992           0.5591930124885863 0.19484155741728282          1.0000   
         H         H         1.0       0.15055670082315298           0.5751393794306651 0.07905954139973081          1.0000   
         H         H         1.0       0.08496491491645619           0.4406221403013942 0.15652071578893878          1.0000   
         H         H         1.0       0.1266536893009811  0.40466532920588216           0.17623269731794267          1.0000   
         H         H         1.0       0.17926127694021454           0.43327311383503525          0.07291768690836431          1.0000   
         H         H         1.0       0.13796137237142037           0.4651703471912178 0.0515039355151683 1.0000   
         H         H         1.0       0.03592581939185946           0.5324388267373781 0.11637411375251805          1.0000   
         H         H         1.0       0.9876447477942999  0.5246667696859607  0.14668027600671252          1.0000   
         H         H         1.0       0.9942423855644585  0.4253486507558049  0.12408015655848659          1.0000   
         H         H         1.0       0.04296146625545538           0.42921371560104843          0.09623764006652458          1.0000   
         H         H         1.0       0.9468675966333892  0.5119624413448511  0.30686428970978086          1.0000   
         H         H         1.0       0.9298686649533418  0.4927870797451349  0.24445920668768628          1.0000   
         H         H         1.0       0.027388437252139797          0.4819046286894623 0.20795341622200136          1.0000   
         H         H         1.0       0.0448965037229625  0.5104905100815516  0.271845759244456  1.0000   
         H         H         1.0       0.9044812014179973  0.4445911193920206  0.20166082053868117          1.0000   
         H         H         1.0       0.8931303410671907  0.3964853792312084  0.23285760725774973          1.0000   
         H         H         1.0       0.9913870439713741  0.369928840877418   0.2403122129732553 1.0000   
         H         H         1.0       0.0037451760074243  0.4184651926847833  0.20391928708598783          1.0000   
         H         H         1.0       0.9201122463835566  0.4475189164809922  0.11867956691186454          1.0000   
         H         H         1.0       0.8709620226317096  0.4717720300377704  0.08308017920756638          1.0000   
         H         H         1.0       0.8890802608949414  0.5543930852206974  0.15340602868053632          1.0000   
         H         H         1.0       0.9345878931633612  0.5319578721172155  0.18538129965269223          1.0000   
         C         C         1.0       0.7126021606006525  0.5668291823942997  0.18803275602133504          1.0000   
         C         C         1.0       0.7033010369034687  0.590131295490744   0.21363907790012804          1.0000   
         C         C         1.0       0.7186453718528286  0.5928331090432205  0.25303376023193574          1.0000   
         C         C         1.0       0.7378407563644543  0.5686343435958532  0.26759491454388146          1.0000   
         C         C         1.0       0.7480753298211809  0.5457911192458926  0.23927319631318889          1.0000   
         C         C         1.0       0.7354993908173791  0.5463089459804926  0.20123323580843547          1.0000   
         H         H         1.0       0.6863686880870394  0.6072954309695346  0.20428656855061492          1.0000   
         H         H         1.0       0.7133856474203153  0.6135700834113448  0.2732921391863927 1.0000   
         H         H         1.0       0.7658215348648918  0.5282608780293748  0.2453073635029451 1.0000   
         H         H         1.0       0.7405386758943325  0.526464482199109   0.18368208438322503          1.0000   
         C         C         1.0       0.7235204598590419  0.5117265702556972  0.32128581608322465          1.0000   
         C         C         1.0       0.7474953671781369  0.5316754262128196  0.33359405948302007          1.0000   
         C         C         1.0       0.7695586620338583  0.5232201291877915  0.36353021485849635          1.0000   
         C         C         1.0       0.7706365136437803  0.4933319243714544  0.37685094861085566          1.0000   
         C         C         1.0       0.7478473828112063  0.47095532394581385           0.36134849056569157          1.0000   
         C         C         1.0       0.7239513967651102  0.4813243988277501  0.33610589760026643          1.0000   
         C         C         1.0       0.7494094255665118  0.5664801731927496  0.31570725060159366          1.0000   
         C         C         1.0       0.7285126460591758  0.5849258037736726  0.3481459174070194 1.0000   
         C         C         1.0       0.7454291017325249  0.5959497575707492  0.3837664348078797 1.0000   
         C         C         1.0       0.7280115760222589  0.6113751150733113  0.4142820528482805 1.0000   
         C         C         1.0       0.6953947497682593  0.6153407862786278  0.4105518960146158 1.0000   
         C         C         1.0       0.6789597153696147  0.6035906489238196  0.37498930466948055          1.0000   
         C         C         1.0       0.6958580596914526  0.5879098021735267  0.3448038963744705 1.0000   
         C         C         1.0       0.8102036876176077  0.5629130896578305  0.300380746031911  1.0000   
         C         C         1.0       0.840640022295412   0.575717850009433   0.29588083997348497          1.0000   
         C         C         1.0       0.8444278480181867  0.6085172870385005  0.29703820015874777          1.0000   
         C         C         1.0       0.8167132802606778  0.626278600924377   0.3073490140557391 1.0000   
         C         C         1.0       0.7884980616398417  0.612338559719351   0.3156318635312812 1.0000   
         C         C         1.0       0.7842983843647208  0.5807450168002951  0.31098175511863496          1.0000   
         C         C         1.0       0.8745353199273747  0.6242357388056202  0.2786024712321507 1.0000   
         C         C         1.0       0.9694203401045038  0.5840631442823344  0.29919187417788506          1.0000   
         C         C         1.0       0.9623108417512307  0.5961037607771416  0.26054987295962967          1.0000   
         C         C         1.0       0.9313292476426123  0.604408582014658   0.25166987853161343          1.0000   
         C         C         1.0       0.9068854108672093  0.6032525445235675  0.27964582769185253          1.0000   
         C         C         1.0       0.9153695107030938  0.588174690256176   0.3156970680861581 1.0000   
         C         C         1.0       0.9462633925281231  0.5840402799157343  0.32808539338566134          1.0000   
         C         C         1.0       0.8868654877569067  0.6540752188759792  0.3030381144432628 1.0000   
         C         C         1.0       0.886797035498326   0.6518721485808179  0.345356586103213  1.0000   
         C         C         1.0       0.908416088885094   0.6689020695160921  0.36936141974529657          1.0000   
         C         C         1.0       0.9273010254103373  0.6905536934256761  0.35222980364988027          1.0000   
         C         C         1.0       0.9249780032036338  0.6950309643324627  0.31063289115506526          1.0000   
         C         C         1.0       0.9041414479802344  0.6775642714365767  0.28571216411121647          1.0000   
         C         C         1.0       0.8452323114485237  0.6567760913553404  0.22036234456821152          1.0000   
         C         C         1.0       0.7569050615380752  0.14027344598558786           0.140987984649202  1.0000   
         C         C         1.0       0.7274078152433496  0.14163568654992284           0.12047846514389526          1.0000   
         C         C         1.0       0.8421241045737887  0.6083971197489879  0.1657803024170473 1.0000   
         C         C         1.0       0.8591643407089151  0.6045424591198789  0.2020741961248278 1.0000   
         C         C         1.0       0.8587023102146542  0.6282279523280067  0.2322070393271276 1.0000   
         H         H         1.0       0.7019863576020298  0.5214303827130085  0.30589447483576593          1.0000   
         H         H         1.0       0.7882498954171906  0.5378216104339305  0.3740316604592178 1.0000   
         H         H         1.0       0.7911717990934146  0.4871067855094519  0.39930345880462453          1.0000   
         H         H         1.0       0.7040026837107944  0.46633678908174003           0.3295068156690838 1.0000   
         H         H         1.0       0.7715950039917944  0.5949074853890823  0.38570584117771034          1.0000   
         H         H         1.0       0.7396902297700013  0.6177944281439622  0.4424026225148111 1.0000   
         H         H         1.0       0.6557402636987252  0.6116776505277893  0.37236421407507847          1.0000   
         H         H         1.0       0.6839638942161893  0.5784674474498024  0.31802509138883056          1.0000   
         H         H         1.0       0.8095759320926204  0.5372264790583395  0.29570543162997076          1.0000   
         H         H         1.0       0.8602032509568879  0.5596056944929014  0.28919641314407857          1.0000   
         H         H         1.0       0.8145119689141871  0.6515675072230621  0.311896153496754  1.0000   
         H         H         1.0       0.7670327205844726  0.626747604577845   0.3220988511954311 1.0000   
         H         H         1.0       0.9817699098605281  0.5951920367695096  0.2375369440914301 1.0000   
         H         H         1.0       0.9256332819601906  0.6189086973453165  0.22691176693713008          1.0000   
         H         H         1.0       0.8978192955174383  0.5825697331860737  0.33927232037696364          1.0000   
         H         H         1.0       0.9510277784734446  0.5765473605062162  0.36015243867194524          1.0000   
         H         H         1.0       0.870833448636668   0.6356119653519603  0.3614365581808883 1.0000   
         H         H         1.0       0.9088455731610826  0.6662425465484005  0.40155666143884056          1.0000   
         H         H         1.0       0.8980776699804864  0.13932433973597033           0.08449907125486988          1.0000   
         H         H         1.0       0.903764526504124   0.6807768024489593  0.25355809774816884          1.0000   
         H         H         1.0       0.844372284819247   0.6759419707804211  0.2419914947462146 1.0000   
         H         H         1.0       0.7589450694982226  0.146891540349717   0.17444518172438864          1.0000   
         H         H         1.0       0.8407095014123046  0.5881267384812762  0.14504622234538167          1.0000   
         H         H         1.0       0.8724447964162791  0.5824689001038967  0.20645989901797301          1.0000   
         C         C         1.0       0.11348966346805378           0.25457916521040563          0.6560219772620774 1.0000   
         C         C         1.0       0.09671749739154945           0.22704405726369584          0.6575433381310762 1.0000   
         C         C         1.0       0.07201242915956918           0.21987760704252388          0.6273905306475263 1.0000   
         C         C         1.0       0.06225610599464737           0.24253620322660213          0.598436657330936  1.0000   
         C         C         1.0       0.07782396528308744           0.2714669199325941 0.5998965262190727 1.0000   
         C         C         1.0       0.10426476517880667           0.27644586153928047          0.6270225540358149 1.0000   
         H         H         1.0       0.1071695641025574  0.20822520065618136           0.6754146270672152 1.0000   
         H         H         1.0       0.06513446299698233           0.1958414377405912 0.6256247567984801 1.0000   
         H         H         1.0       0.0750095147959462  0.28969726741818846           0.5769595750192609 1.0000   
         H         H         1.0       0.11933801607684402           0.29803955180133473          0.6259627483266005 1.0000   
         C         C         1.0       0.9997184293497827  0.20227156277935987           0.608676643205709  1.0000   
         C         C         1.0       0.014164573196982388          0.20580927698228177          0.5710633785026213 1.0000   
         C         C         1.0       0.009493502860693281          0.18095460870067775          0.544735290722599  1.0000   
         C         C         1.0       0.9896096168881089  0.15590537051869272           0.55279966734301   1.0000   
         C         C         1.0       0.972717301750432   0.15571075730129175           0.587921441920848  1.0000   
         C         C         1.0       0.9769909137124603  0.18048234439446179           0.6155400363830031 1.0000   
         C         C         1.0       0.03762685801195298           0.23399616179687155          0.5599440797548032 1.0000   
         C         C         1.0       0.06182664779011904           0.22633514054942513          0.5228896743900563 1.0000   
         C         C         1.0       0.0925817084227849  0.21441990232458338           0.5276606062946954 1.0000   
         C         C         1.0       0.11234964287525617           0.20481592288806877          0.4954217068280992 1.0000   
         C         C         1.0       0.10099858313762433           0.2086805125074359 0.45780882419561686          1.0000   
         C         C         1.0       0.07051817736296573           0.2198123292817134 0.4499689001319016 1.0000   
         C         C         1.0       0.049918191834638304          0.225993032180986  0.48220955883498245          1.0000   
         C         C         1.0       0.9933132332550016  0.2762326794787706  0.5740895295096361 1.0000   
         C         C         1.0       0.9834237040777092  0.30673557284915165           0.5791335123077085 1.0000   
         C         C         1.0       0.995024276576833   0.3307579410382957  0.5575349366276307 1.0000   
         C         C         1.0       0.0119804932518357  0.32093046011941234           0.5230167887161997 1.0000   
         C         C         1.0       0.025442819076149314          0.290642774254099  0.5227917714207678 1.0000   
         C         C         1.0       0.016719442657028516          0.2665142048495399 0.5488535584435119 1.0000   
         C         C         1.0       0.9893369103420343  0.36628935554433323           0.5715586313349607 1.0000   
         C         C         1.0       0.0021147290812404407         0.3742685017874744 0.7053297640270905 1.0000   
         C         C         1.0       0.021735255682962196          0.35404371151239156          0.6839398458087079 1.0000   
         C         C         1.0       0.019739778617714254          0.3535081811666423 0.6421283748428087 1.0000   
         C         C         1.0       0.9963955268900366  0.3708741167570158  0.6215195098586964 1.0000   
         C         C         1.0       0.9791322573035952  0.394435767074767   0.6437808665373702 1.0000   
         C         C         1.0       0.981548623230128   0.39433090896981443           0.6855487259642203 1.0000   
         C         C         1.0       0.9529813676783963  0.3710699454585778  0.5541030478289465 1.0000   
         C         C         1.0       0.9472927059632335  0.37550051687192937           0.5122309478438335 1.0000   
         C         C         1.0       0.9167715111677516  0.3741765912521694  0.4941073470988691 1.0000   
         C         C         1.0       0.8905451324498646  0.37119881601744137           0.5179263177900567 1.0000   
         C         C         1.0       0.8962325130550578  0.36904105247404617           0.5595136471287911 1.0000   
         C         C         1.0       0.9262527909671486  0.3694834135468112  0.578238720109455  1.0000   
         C         C         1.0       0.0038002559708412154         0.4231909121274252 0.5549356337288899 1.0000   
         C         C         1.0       0.02528214996661049           0.44772607761132704          0.5544654125303208 1.0000   
         C         C         1.0       0.05832556702287617           0.44283703390600787          0.5565860014168205 1.0000   
         C         C         1.0       0.06902050794386483           0.41130353161826116          0.5596370122835408 1.0000   
         C         C         1.0       0.046476995989944925          0.38715697579935293          0.5578635160455871 1.0000   
         C         C         1.0       0.013317423363645275          0.3926411622530201 0.5576195652092536 1.0000   
         H         H         1.0       0.005629212559154162          0.21907824039185636          0.6350346534800999 1.0000   
         H         H         1.0       0.02401122674099665           0.18090392121551369          0.516663050918434  1.0000   
         H         H         1.0       0.9919573807629969  0.13453215385917394           0.5320088839235765 1.0000   
         H         H         1.0       0.967280743991854   0.18050426795857297           0.645087257751302  1.0000   
         H         H         1.0       0.10375128096860409           0.21571044329827274          0.558486826427871  1.0000   
         H         H         1.0       0.13779172454681943           0.1954434335653866 0.4990029726894141 1.0000   
         H         H         1.0       0.06275955179569936           0.22294287753060127          0.41817983473141174          1.0000   
         H         H         1.0       0.025659331530663243          0.2347028250986371 0.4749563522720408 1.0000   
         H         H         1.0       0.9862973412297447  0.26024582479581954           0.5982168873828702 1.0000   
         H         H         1.0       0.971665056487581   0.31493201728991016           0.6066151585262893 1.0000   
         H         H         1.0       0.02100478111496029           0.3364823329586937 0.49957399913646044          1.0000   
         H         H         1.0       0.04297748078932506           0.2856329132148857 0.49766884402340145          1.0000   
         H         H         1.0       0.04046746206579965           0.3415107656556996 0.6992010631708498 1.0000   
         H         H         1.0       0.03610686099166993           0.3385795529755212 0.6265461124182623 1.0000   
         H         H         1.0       0.9603579063597389  0.41058529074266903           0.6323466928806368 1.0000   
         H         H         1.0       0.9652701209512763  0.408839743018761   0.7023927312864219 1.0000   
         H         H         1.0       0.9676108272302075  0.37816855827572765           0.4923984301526423 1.0000   
         H         H         1.0       0.9147400471631794  0.37797073271671405           0.4613095228975716 1.0000   
         H         H         1.0       0.8773295956869898  0.3627640948637966  0.5775380971576075 1.0000   
         H         H         1.0       0.9284184009105523  0.36516694445058134           0.6108401150674027 1.0000   
         H         H         1.0       0.9776695193673159  0.43011278871059716           0.553377425329199  1.0000   
         H         H         1.0       0.016023285030030143          0.4713944478884164 0.5503064259833649 1.0000   
         H         H         1.0       0.09479921255254076           0.40417975247668997          0.5656018362386973 1.0000   
         H         H         1.0       0.05659844768146072           0.3640624023391594 0.5665279366600113 1.0000   
         C         C         1.0       0.8478074668693798  0.25104332342013486           0.9457764948840124 1.0000   
         C         C         1.0       0.8294158701609926  0.23040322524322404           0.9221388728554061 1.0000   
         C         C         1.0       0.8072002393663794  0.24120473243375334           0.893411476021218  1.0000   
         C         C         1.0       0.8030353793758236  0.2740082702520649  0.8875681268107063 1.0000   
         C         C         1.0       0.8193174428438301  0.2936356590158079  0.9155167487129053 1.0000   
         C         C         1.0       0.8419409393924683  0.2827979116064215  0.9423715969245969 1.0000   
         H         H         1.0       0.8275673171019615  0.20553836352419447           0.9287470294981073 1.0000   
         H         H         1.0       0.7933196013138152  0.22508190936102387           0.875428280809396  1.0000   
         H         H         1.0       0.8165796662074731  0.31822818703183564           0.9121640185430173 1.0000   
         H         H         1.0       0.8558550708416123  0.3010299628469981  0.9608746467224977 1.0000   
         C         C         1.0       0.7550037287606098  0.3363740375040795  0.8679129336456871 1.0000   
         C         C         1.0       0.7736871805418647  0.31992356605782624           0.8399003728011045 1.0000   
         C         C         1.0       0.7774245205063512  0.33291861537092465           0.8021422125544952 1.0000   
         C         C         1.0       0.7640782613717391  0.36116996825893216           0.7925154525568439 1.0000   
         C         C         1.0       0.7459442164495148  0.3769790220207066  0.821078761379119  1.0000   
         C         C         1.0       0.7394074403268739  0.36514452568351424           0.8576385436102355 1.0000   
         C         C         1.0       0.7868102837245904  0.2834349513296205  0.8444445568738211 1.0000   
         C         C         1.0       0.7524623009625078  0.26496576341119393           0.8373143772820731 1.0000   
         C         C         1.0       0.7395629442866266  0.2579629063417659  0.7990861286533002 1.0000   
         C         C         1.0       0.7083983025342458  0.2468808861587626  0.7933912428006735 1.0000   
         C         C         1.0       0.6901956793866281  0.24113154340700618           0.827327760465494  1.0000   
         C         C         1.0       0.7018193061645618  0.2478006808478189  0.8659019227030805 1.0000   
         C         C         1.0       0.7320595534699035  0.2610962207693905  0.8711877814749516 1.0000   
         C         C         1.0       0.8450412377599055  0.2947037627376144  0.8206821294915436 1.0000   
         C         C         1.0       0.8743247179721019  0.2842547990522239  0.8059972544326266 1.0000   
         C         C         1.0       0.8758655120344     0.2565639890817978  0.7829859886366334 1.0000   
         C         C         1.0       0.8473831168987005  0.23856208750974547           0.7794220209899247 1.0000   
         C         C         1.0       0.8191987092767377  0.24736322555202897           0.7966190869810963 1.0000   
         C         C         1.0       0.8171642036551015  0.27563350080334154           0.8176478416906008 1.0000   
         C         C         1.0       0.9082984739816747  0.242070971799683   0.7689741557637507 1.0000   
         C         C         1.0       0.9829890894701334  0.31528316313420707           0.7623533442477255 1.0000   
         C         C         1.0       0.9911969600802578  0.28548441136570807           0.7719334987791132 1.0000   
         C         C         1.0       0.9689536670348576  0.261475690652443   0.7694747281244008 1.0000   
         C         C         1.0       0.93614083491242    0.26719022834003214           0.7608964438575833 1.0000   
         C         C         1.0       0.9282996900327909  0.2976662005364877  0.7477116683881327 1.0000   
         C         C         1.0       0.9520388516511843  0.3209378399644669  0.7483891320387767 1.0000   
         C         C         1.0       0.901610837823598   0.22496844933523308           0.7249062931659725 1.0000   
         C         C         1.0       0.9162848806350197  0.19636407784639798           0.7186970279008214 1.0000   
         C         C         1.0       0.8712013783615997  0.6933650662993455  0.6220480911879637 1.0000   
         C         C         1.0       0.8842095177341297  0.1890964700132464  0.6579216404757562 1.0000   
         C         C         1.0       0.8711214118701922  0.21943393809094353           0.6627844608633493 1.0000   
         C         C         1.0       0.8818926966514494  0.23774037758644312           0.6945119578420966 1.0000   
         C         C         1.0       0.9041525174376376  0.19038470134627983           0.8125409074119743 1.0000   
         C         C         1.0       0.9120545300651843  0.17097537981242228           0.8465861902540156 1.0000   
         C         C         1.0       0.9339407261924106  0.18312226059303024           0.8756354884946675 1.0000   
         C         C         1.0       0.9454664978312612  0.21350531197562675           0.873522141471911  1.0000   
         C         C         1.0       0.9355422428230271  0.23189119393061128           0.839801352885548  1.0000   
         C         C         1.0       0.9166232852259741  0.22063352039401463           0.8087095864575479 1.0000   
         H         H         1.0       0.74814086222598    0.3252724835309657  0.8948969415581707 1.0000   
         H         H         1.0       0.7901393594131786  0.32143675756976825           0.776902820248523  1.0000   
         H         H         1.0       0.7680249622426488  0.3698716470206444  0.7618120825430946 1.0000   
         H         H         1.0       0.7248409050997167  0.37629132680346833           0.8804698736287914 1.0000   
         H         H         1.0       0.7518239951907877  0.2674965737392648  0.7741937779897753 1.0000   
         H         H         1.0       0.6971584228581081  0.24339593175727425           0.7642896024968493 1.0000   
         H         H         1.0       0.690131244211078   0.23919217049121277           0.892410876380388  1.0000   
         H         H         1.0       0.7391932823147919  0.26891575084947483           0.9020463501825743 1.0000   
         H         H         1.0       0.8472060119328073  0.3184547514188799  0.8371483938834601 1.0000   
         H         H         1.0       0.8927777068863237  0.30001688469622356           0.8138920082641148 1.0000   
         H         H         1.0       0.8451387574811329  0.21395395370570452           0.768268425304342  1.0000   
         H         H         1.0       0.7988793735532644  0.23282691576572145           0.7952917248821935 1.0000   
         H         H         1.0       0.015359301746749487          0.2796672496175105 0.7814195872967984 1.0000   
         H         H         1.0       0.9779568632282961  0.23920956295382365           0.7762812122397408 1.0000   
         H         H         1.0       0.9038169325108756  0.30664194060144795           0.7358448281626347 1.0000   
         H         H         1.0       0.9448684363018466  0.34429178241672653           0.7371240384325737 1.0000   
         H         H         1.0       0.9360875697011386  0.18513637224699436           0.7371795642973604 1.0000   
         H         H         1.0       0.8896457007577451  0.6754978916867764  0.624102366568371  1.0000   
         H         H         1.0       0.8497982565469802  0.22734925650024795           0.644995318027407  1.0000   
         H         H         1.0       0.8719504060537818  0.2611794178209133  0.6995672081274011 1.0000   
         H         H         1.0       0.8895115097837344  0.17902998580419166           0.7874262167476562 1.0000   
         H         H         1.0       0.9000050992044358  0.14780328389393613           0.8520573575905981 1.0000   
         H         H         1.0       0.965058493674842   0.22259236326172352           0.8956643613156116 1.0000   
         H         H         1.0       0.9418238807464859  0.2570528685113571  0.8418381687880552 1.0000   
         C         C         1.0       0.7003629871655552  0.6206119463681368  0.7122221598536037 1.0000   
         C         C         1.0       0.6930677235455205  0.5911296479313168  0.6961274034258312 1.0000   
         C         C         1.0       0.7125083450494925  0.5776942282824699  0.6668992650131538 1.0000   
         C         C         1.0       0.7405961967013511  0.5930000483323826  0.6553598693848426 1.0000   
         C         C         1.0       0.7514378293407156  0.618980150825484   0.6797907539154244 1.0000   
         C         C         1.0       0.7310711537218916  0.6325277202794117  0.7063095508838995 1.0000   
         H         H         1.0       0.6719716033191757  0.5797339833913682  0.7041575380925684 1.0000   
         H         H         1.0       0.703068117097561   0.5569643145123153  0.651465815765488  1.0000   
         H         H         1.0       0.7754803741577184  0.6271943014373134  0.676717101959215  1.0000   
         H         H         1.0       0.7372912603808112  0.6543972327248032  0.7229588683841043 1.0000   
         C         C         1.0       0.779815746540094   0.6405602143762269  0.5963173391209616 1.0000   
         C         C         1.0       0.7815253126245578  0.6081132056284803  0.593715323800363  1.0000   
         C         C         1.0       0.8009991787786711  0.5955909788791636  0.5648614605376163 1.0000   
         C         C         1.0       0.817922636637192   0.6149585299682313  0.5388786104982064 1.0000   
         C         C         1.0       0.8191534747255006  0.6468534738369527  0.5461529653174946 1.0000   
         C         C         1.0       0.7993044975437257  0.659293944699517   0.5731560522905446 1.0000   
         C         C         1.0       0.7528423268582611  0.5858409367480184  0.6114193243509701 1.0000   
         C         C         1.0       0.728192529389748   0.5908276542259788  0.5740676549540111 1.0000   
         C         C         1.0       0.7267240153043799  0.5736336717828718  0.5375807251214139 1.0000   
         C         C         1.0       0.7053806294308064  0.5809475554434699  0.5080271339058435 1.0000   
         C         C         1.0       0.6829588765052036  0.6056445587219395  0.5120910629252103 1.0000   
         C         C         1.0       0.6873600369540493  0.6259161022938523  0.5456408021594248 1.0000   
         C         C         1.0       0.7083091610493011  0.6175749384402021  0.5769638073897434 1.0000   
         C         C         1.0       0.7958780367905047  0.5489188984289063  0.6399393751019529 1.0000   
         C         C         1.0       0.8060518780966148  0.5196890049083693  0.6511641348156658 1.0000   
         C         C         1.0       0.7900886179030369  0.4930805525859333  0.6433536386136207 1.0000   
         C         C         1.0       0.7620387805548918  0.49561599354395885           0.619774428258723  1.0000   
         C         C         1.0       0.7495621519792852  0.5245185457677227  0.6082112740636615 1.0000   
         C         C         1.0       0.7661089312933066  0.5514165091404976  0.6175766802320627 1.0000   
         C         C         1.0       0.8011233545384031  0.4583108057696898  0.6586662871051833 1.0000   
         C         C         1.0       0.8664469645783179  0.43808339766874577           0.7629015112621056 1.0000   
         C         C         1.0       0.8487770866139098  0.4665652306616816  0.7611395649305046 1.0000   
         C         C         1.0       0.8304512138525151  0.4738645544611689  0.7270900878993135 1.0000   
         C         C         1.0       0.82653911206557    0.4533108687608627  0.6944829831692886 1.0000   
         C         C         1.0       0.8416624401673771  0.42282128902714183           0.6987073401587917 1.0000   
         C         C         1.0       0.8607141183686167  0.4164524069218236  0.7335124424721943 1.0000   
         C         C         1.0       0.8127531088347109  0.4433316044518242  0.6156664606666961 1.0000   
         C         C         1.0       0.7916609567222926  0.42733281570154524           0.5896007363737374 1.0000   
         C         C         1.0       0.8001776606849379  0.41567784062252705           0.5520087799901608 1.0000   
         C         C         1.0       0.8306167397842182  0.42194067688155446           0.5373775934686825 1.0000   
         C         C         1.0       0.8514826648782482  0.4390464628610905  0.5623251310589975 1.0000   
         C         C         1.0       0.8430854107295112  0.45001753305874304           0.6005551664850716 1.0000   
         C         C         1.0       0.7605430780122112  0.4142276528951096  0.6751273128269888 1.0000   
         C         C         1.0       0.7379520462080829  0.4007363838266755  0.6986532197887263 1.0000   
         C         C         1.0       0.7232997222786794  0.4197069575943405  0.7275969009809172 1.0000   
         C         C         1.0       0.7301656658664148  0.45237548444370995           0.730958803243505  1.0000   
         C         C         1.0       0.7532131270299647  0.4633812738464295  0.7070061793620572 1.0000   
         C         C         1.0       0.7692345728297998  0.445136200250844   0.6787827217397263 1.0000   
         H         H         1.0       0.7640701330206341  0.6522659773315499  0.618335287106072  1.0000   
         H         H         1.0       0.8027528928076693  0.5698937090909362  0.5572284292235359 1.0000   
         H         H         1.0       0.8282081106959129  0.605408913868977   0.5097233256346191 1.0000   
         H         H         1.0       0.7987346175433903  0.68479490752294    0.5797948244220424 1.0000   
         H         H         1.0       0.7446236279377264  0.5523920541819581  0.5349618339013298 1.0000   
         H         H         1.0       0.707262193109315   0.5675056715656545  0.47987090469318416          1.0000   
         H         H         1.0       0.6733456211310838  0.6467632624862723  0.5518120347605313 1.0000   
         H         H         1.0       0.7089297190231524  0.6349797991389082  0.6016028569611824 1.0000   
         H         H         1.0       0.8127081331131158  0.5667818450747808  0.6485001933094308 1.0000   
         H         H         1.0       0.8285218207278753  0.5198586137845522  0.6685201284688372 1.0000   
         H         H         1.0       0.7454434306272804  0.47538100859273474           0.6121466329246457 1.0000   
         H         H         1.0       0.7239808188781557  0.5257215217476433  0.5962449085448573 1.0000   
         H         H         1.0       0.8498036700678765  0.48549911726758394           0.7839442053009986 1.0000   
         H         H         1.0       0.8175113614675039  0.49647550982222693           0.7270808035232826 1.0000   
         H         H         1.0       0.8362761407019387  0.4033730437751111  0.6777572228684958 1.0000   
         H         H         1.0       0.870933456582423   0.3929813493396705  0.734438771402779  1.0000   
         H         H         1.0       0.7655040882565104  0.4262647724663462  0.5966338659162012 1.0000   
         H         H         1.0       0.7844456466467148  0.4022263626826824  0.5336204790714693 1.0000   
         H         H         1.0       0.873705978814461   0.44508929281387893           0.548182285707934  1.0000   
         H         H         1.0       0.8578052233226501  0.46695956315020987           0.6194523151649058 1.0000   
         H         H         1.0       0.7745959089326216  0.399305143219506   0.6554763695990918 1.0000   
         H         H         1.0       0.7382889144683056  0.37578225421904354           0.7025258962449117 1.0000   
         H         H         1.0       0.7176223873526916  0.46593047475332205           0.7540127259694956 1.0000   
         H         H         1.0       0.7595709400708133  0.48656557070419754           0.7155723332267601 1.0000   
         C         C         1.0       0.07274634845355799           0.5194224676062225 0.8497058147426901 1.0000   
         C         C         1.0       0.07492598770285519           0.5528062445035191 0.8493417848715666 1.0000   
         C         C         1.0       0.07124110539543915           0.5669469241199644 0.8120807161481282 1.0000   
         C         C         1.0       0.06440177661619773           0.549218790000301  0.7743882164041862 1.0000   
         C         C         1.0       0.060713487669217914          0.5166717115312364 0.779084204498204  1.0000   
         C         C         1.0       0.06273828748585442           0.5018720679605935 0.8151740757938969 1.0000   
         H         H         1.0       0.07744681426839062           0.5667813344062257 0.8776869916161878 1.0000   
         H         H         1.0       0.07362264417187547           0.5932514542806506 0.8132577098098352 1.0000   
         H         H         1.0       0.056700477737913646          0.498560984756108  0.7541493558588954 1.0000   
         H         H         1.0       0.06102029008860832           0.47653265882588686          0.8149859151354586 1.0000   
         C         C         1.0       0.09345110248325517           0.5453245998471257 0.6722996728618861 1.0000   
         C         C         1.0       0.06531012262581215           0.5435510818665787 0.6935119771423742 1.0000   
         C         C         1.0       0.04601987144727593           0.5178826346781034 0.6815321738213348 1.0000   
         C         C         1.0       0.054303749951293945          0.496296677154828  0.6509381299553789 1.0000   
         C         C         1.0       0.08400487739837859           0.49970927892235323          0.6331380058981564 1.0000   
         C         C         1.0       0.10288728723647056           0.5246987876099598 0.6430093061802545 1.0000   
         C         C         1.0       0.05740302790364882           0.5676422479065505 0.732281753560768  1.0000   
         C         C         1.0       0.0785830648376713  0.598048081692856   0.7274663070771906 1.0000   
         C         C         1.0       0.06887755771291437           0.6227146653339328 0.7005924542908923 1.0000   
         C         C         1.0       0.08769449495646375           0.6492924128533504 0.694694910575453  1.0000   
         C         C         1.0       0.11475578338969727           0.6548539920440669 0.7200838088263448 1.0000   
         C         C         1.0       0.1245300531590996  0.6309723345566266  0.7447072160166793 1.0000   
         C         C         1.0       0.10706522969717791           0.6032902032580171 0.7474774662844682 1.0000   
         C         C         1.0       0.001990553885101942          0.5858037589738404 0.7634407277275871 1.0000   
         C         C         1.0       0.9688090512129676  0.5862977218726492  0.7613280179036516 1.0000   
         C         C         1.0       0.9534318707517634  0.5793657701186272  0.7243911447014453 1.0000   
         C         C         1.0       0.9707104793413555  0.5817350396315024  0.6881402974334706 1.0000   
         C         C         1.0       0.003596443430310181          0.5805882464357284 0.6933030538026832 1.0000   
         C         C         1.0       0.019752669803643652          0.5792617298867033 0.7306877112062383 1.0000   
         C         C         1.0       0.919061997876172   0.564129399218542   0.723774419601237  1.0000   
         C         C         1.0       0.9330882535854511  0.46818793842426554           0.772165672879015  1.0000   
         C         C         1.0       0.928092951167085   0.4927692762445679  0.7988871533037197 1.0000   
         C         C         1.0       0.9257466609459694  0.5238486222530884  0.7842796302436146 1.0000   
         C         C         1.0       0.9268788059612875  0.528550397424118   0.7419357665128349 1.0000   
         C         C         1.0       0.9374450507647732  0.5035087757748657  0.7169267040920648 1.0000   
         C         C         1.0       0.940196663116903   0.47404239045644314           0.7319459263540734 1.0000   
         C         C         1.0       0.9015156572496197  0.567861812157297   0.6786319469239238 1.0000   
         C         C         1.0       0.986259942427009   0.09522967607805331           0.7147308455100417 1.0000   
         C         C         1.0       0.9810714552827334  0.10648914426172906           0.6759473006454728 1.0000   
         C         C         1.0       0.9522635571821402  0.09979344114716882           0.6546271330822961 1.0000   
         C         C         1.0       0.9275341345368203  0.08766336705392663           0.674558569789881  1.0000   
         C         C         1.0       0.8933450589483043  0.5426336928214972  0.6526344740091159 1.0000   
         C         C         1.0       0.8647369766680514  0.5666329130647317  0.7616968850193169 1.0000   
         C         C         1.0       0.8471386586495863  0.5785993095054411  0.7935138504193353 1.0000   
         C         C         1.0       0.8528984699227987  0.6085598911909915  0.8079370820410221 1.0000   
         C         C         1.0       0.8776744134502207  0.6257192678620073  0.7925327369907508 1.0000   
         C         C         1.0       0.8981240027236324  0.6124461363663672  0.7651209765506337 1.0000   
         C         C         1.0       0.8919721409052628  0.5816824994991435  0.7489979225340503 1.0000   
         H         H         1.0       0.10838100294744324           0.5660273125711072 0.6784568892239351 1.0000   
         H         H         1.0       0.02172274270575736           0.5162731720490904 0.6898289267127979 1.0000   
         H         H         1.0       0.04229184585143031           0.47340566508301934          0.6439691681143025 1.0000   
         H         H         1.0       0.12433035596418018           0.5275790402958845 0.6261316003392218 1.0000   
         H         H         1.0       0.046948573714501673          0.6203579306124575 0.6835503622461987 1.0000   
         H         H         1.0       0.07885358629509986           0.6673247328318367 0.6754268545277763 1.0000   
         H         H         1.0       0.14487221797843053           0.6312874020398176 0.7662573814821972 1.0000   
         H         H         1.0       0.11789734128334062           0.5837589160828002 0.7646208563462166 1.0000   
         H         H         1.0       0.015675857636837875          0.5846199914722889 0.7938438525979497 1.0000   
         H         H         1.0       0.9545403267979159  0.5873332756492734  0.7879693532553486 1.0000   
         H         H         1.0       0.958498721414564   0.5801192448977529  0.6568404562403062 1.0000   
         H         H         1.0       0.01731623846582342           0.5782632966569479 0.6656846553868333 1.0000   
         H         H         1.0       0.9264399189312545  0.4893205797934723  0.8307421497205235 1.0000   
         H         H         1.0       0.9213453405309454  0.5427131293285813  0.8062466153911787 1.0000   
         H         H         1.0       0.9404340438433099  0.5062277092986283  0.6849003104919199 1.0000   
         H         H         1.0       0.9438962106072626  0.4552482706252125  0.709099885251222  1.0000   
         H         H         1.0       0.8962325909132385  0.6181980843807038  0.6817171193452801 1.0000   
         H         H         1.0       0.9998669024998805  0.11807736093899555           0.6600911568525611 1.0000   
         H         H         1.0       0.9055789590371484  0.08308013325702457           0.6561475583913392 1.0000   
         H         H         1.0       0.8925914149415474  0.5186260778079536  0.6628602605445796 1.0000   
         H         H         1.0       0.8589038689505539  0.5429030959203     0.7516603768881738 1.0000   
         H         H         1.0       0.8285750310783682  0.5636332877512763  0.8069946794047488 1.0000   
         H         H         1.0       0.8803202764508222  0.6502823763271641  0.8023536105529769 1.0000   
         H         H         1.0       0.9163589757419857  0.6285861364648774  0.7557069412717203 1.0000   
         C         C         1.0       0.21583145488321429           0.32315845910043206          0.2948498984761063 1.0000   
         C         C         1.0       0.21787734642104697           0.299665717753721  0.3243855038897598 1.0000   
         C         C         1.0       0.23043504845967352           0.27062777453421   0.3157990752516347 1.0000   
         C         C         1.0       0.24224533390206315           0.264151843227099  0.27641106969762247          1.0000   
         C         C         1.0       0.24284358428879307           0.2883212865701532 0.24978129475362   1.0000   
         C         C         1.0       0.2297351153161993  0.3175573616855683  0.2584241723734535 1.0000   
         H         H         1.0       0.20636490021968443           0.3055717359415996 0.35348474281187386          1.0000   
         H         H         1.0       0.22950624234261746           0.254073970098523  0.34012012096810834          1.0000   
         H         H         1.0       0.255341434441124   0.28635492034211596           0.22135137321078688          1.0000   
         H         H         1.0       0.23146370321381202           0.33580466185010444          0.2345393306649429 1.0000   
         C         C         1.0       0.22402318847795444           0.22798829423785613          0.1964187948357924 1.0000   
         C         C         1.0       0.24874249068301252           0.21582085930771225          0.22120786720365798          1.0000   
         C         C         1.0       0.26331696904708113           0.18820462012542186          0.20853745220528322          1.0000   
         C         C         1.0       0.257894562340622   0.1762844001509991  0.16982417782722173          1.0000   
         C         C         1.0       0.23863778152319357           0.19264644355322827          0.14378370960950967          1.0000   
         C         C         1.0       0.21917339224548288           0.216504673465824  0.15651051146963066          1.0000   
         C         C         1.0       0.25923162471427635           0.23117890979252015          0.2652865700043383 1.0000   
         C         C         1.0       0.24828098798619552           0.20326753412900353          0.29521434400578017          1.0000   
         C         C         1.0       0.2723206309039687  0.18588809701767414           0.31661961159116403          1.0000   
         C         C         1.0       0.2653562104842339  0.16224741502606807           0.34183596127668125          1.0000   
         C         C         1.0       0.23301920700897338           0.15444986251045514          0.3459519741646379 1.0000   
         C         C         1.0       0.20972873758703137           0.1688844276815897 0.3218521698430252 1.0000   
         C         C         1.0       0.21608234943418142           0.19428739041702678          0.3001609988224101 1.0000   
         C         C         1.0       0.31199084579686465           0.2439662185774641 0.23011745082620869          1.0000   
         C         C         1.0       0.3434950716440729  0.25216202398300874           0.22745955460966438          1.0000   
         C         C         1.0       0.36187767707230917           0.2580719129705649 0.26367713317375074          1.0000   
         C         C         1.0       0.3465807171138231  0.25509944897815967           0.30040343784900714          1.0000   
         C         C         1.0       0.3148387930804063  0.24704752391162751           0.3025581535013898 1.0000   
         C         C         1.0       0.29609102671771614           0.242404519747814  0.2670400495661442 1.0000   
         C         C         1.0       0.40121498210177253           0.26210469124202496          0.2618242339991829 1.0000   
         C         C         1.0       0.42782945908801967           0.16076794940578776          0.2650081096184535 1.0000   
         C         C         1.0       0.4215448416345411  0.1751146514334296  0.22750727821804742          1.0000   
         C         C         1.0       0.4142577002172708  0.20620840038254543           0.22559341614594833          1.0000   
         C         C         1.0       0.4097820923725086  0.22476566050398464           0.2598169065702416 1.0000   
         C         C         1.0       0.41142598145871323           0.20905752280388168          0.29568363148431354          1.0000   
         C         C         1.0       0.4235053118560974  0.1780946689530371  0.2995377796602644 1.0000   
         C         C         1.0       0.420021488919478   0.2792402578457676  0.2981658333717316 1.0000   
         C         C         1.0       0.40741635439387164           0.29911568168931785          0.32557912506345893          1.0000   
         C         C         1.0       0.424874252559081   0.3096694466609049  0.35860241096109285          1.0000   
         C         C         1.0       0.4566896572006856  0.3011707071971572  0.36442084165834626          1.0000   
         C         C         1.0       0.4711026938760077  0.2829760574561762  0.33499254302243353          1.0000   
         C         C         1.0       0.45243364674974457           0.27235090626180014          0.30260136366180623          1.0000   
         C         C         1.0       0.43366809483406815           0.2799339935701284 0.20033673873905597          1.0000   
         C         C         1.0       0.4361416942747274  0.2957020956015724  0.16437809242166193          1.0000   
         C         C         1.0       0.4140717742411022  0.3197993101260188  0.15453335445529764          1.0000   
         C         C         1.0       0.3914222941113638  0.3292987359723021  0.18265843506013463          1.0000   
         C         C         1.0       0.3877177689335952  0.3116370378039595  0.21894343406031466          1.0000   
         C         C         1.0       0.40773331913542604           0.28486403626569123          0.22540300786830003          1.0000   
         H         H         1.0       0.20688533894129896           0.24637981594867978          0.2045339434120174 1.0000   
         H         H         1.0       0.27921965592783654           0.1748602940063444 0.2292157673591774 1.0000   
         H         H         1.0       0.2679286655962572  0.1541604692567318  0.1607767391067966 1.0000   
         H         H         1.0       0.20242641919166052           0.2284776024309063 0.13764015362723336          1.0000   
         H         H         1.0       0.29736440149521876           0.19211063855346755          0.31638394637408496          1.0000   
         H         H         1.0       0.2829405081178728  0.1490112774930626  0.3577249793510131 1.0000   
         H         H         1.0       0.18408267084885843           0.16353694417661174          0.32344607604166614          1.0000   
         H         H         1.0       0.19810986882383058           0.20455407891387037          0.2792767069031794 1.0000   
         H         H         1.0       0.30093971101839484           0.23829375494741104          0.20070838650301906          1.0000   
         H         H         1.0       0.3565965008380128  0.24933716259654937           0.19969183173847008          1.0000   
         H         H         1.0       0.36053014428224184           0.25972712041719426          0.32873946291227796          1.0000   
         H         H         1.0       0.30265666143674486           0.24623845915593018          0.3318832768061581 1.0000   
         H         H         1.0       0.422220581879118   0.1614705231292945  0.19983780230044568          1.0000   
         H         H         1.0       0.4136008883960735  0.21869883497455578           0.19605926527634093          1.0000   
         H         H         1.0       0.4085186457322346  0.22342151937971297           0.32257667695403064          1.0000   
         H         H         1.0       0.4271886982854051  0.16587114509934267           0.3287379959663485 1.0000   
         H         H         1.0       0.3849132105840251  0.3105804353683261  0.3203703811900365 1.0000   
         H         H         1.0       0.41172576368926583           0.3275889569924336 0.37839609511950645          1.0000   
         H         H         1.0       0.4966547514531178  0.2786159887574348  0.33931149951365575          1.0000   
         H         H         1.0       0.4647918414427654  0.25808601432031614           0.2769527584079378 1.0000   
         H         H         1.0       0.45160860679267006           0.26093510542587217          0.2057174199101199 1.0000   
         H         H         1.0       0.4544854605944644  0.28943867210401425           0.1446524298859941 1.0000   
         H         H         1.0       0.3730407401629229  0.3472708278295359  0.17423901411350043          1.0000   
         H         H         1.0       0.36777340465729225           0.3140745300626441 0.2398637507776994 1.0000   
         C         C         1.0       0.4328384110213894  0.23495975713566367           0.954795099315975  1.0000   
         C         C         1.0       0.4616347338549232  0.22144917694414604           0.9416699375606765 1.0000   
         C         C         1.0       0.4904508152427048  0.22912561460349112           0.9590630305749959 1.0000   
         C         C         1.0       0.49161571032539475           0.24655787570861823          0.9948838926169258 1.0000   
         C         C         1.0       0.4625761625783618  0.2591057283619468  0.009966633918506052         1.0000   
         C         C         1.0       0.43412006675485576           0.2539368348526191 0.9898703502275746 1.0000   
         H         H         1.0       0.46310164674015225           0.21109478803075868          0.9107951479086249 1.0000   
         H         H         1.0       0.5141415686119054  0.22108738106504908           0.9466659198329759 1.0000   
         H         H         1.0       0.45918404289078507           0.272209342753276  0.039439514928580666         1.0000   
         H         H         1.0       0.41287333551900574           0.2684461044721044 0.9985077516232724 1.0000   
         C         C         1.0       0.5099674809746619  0.31511705807795937           0.029887001415567882         1.0000   
         C         C         1.0       0.5257105258628108  0.2862563979977178  0.044730143972578906         1.0000   
         C         C         1.0       0.5412468615653067  0.2887300165824909  0.08190270067556837          1.0000   
         C         C         1.0       0.5392818217618193  0.3147710054848432  0.1065704427384826 1.0000   
         C         C         1.0       0.5238461085867306  0.3410315281272785  0.09193953326390258          1.0000   
         C         C         1.0       0.5087507867110882  0.3413967806131935  0.05465737240064272          1.0000   
         C         C         1.0       0.5259953873389032  0.25431236295091303           0.017390613282046496         1.0000   
         C         C         1.0       0.5559947974767969  0.26307310812109447           0.9893842285917779 1.0000   
         C         C         1.0       0.5866451557149263  0.2610582398181876  0.004471586528224103         1.0000   
         C         C         1.0       0.6130511669746775  0.2707094302354101  0.9842227097517996 1.0000   
         C         C         1.0       0.6086643121751916  0.286226465844275   0.9499767022370573 1.0000   
         C         C         1.0       0.5786092716997979  0.28947310464195974           0.9325435980839626 1.0000   
         C         C         1.0       0.5516857965319892  0.2774355739416663  0.9521467311403096 1.0000   
         C         C         1.0       0.5083235307298523  0.21684623520682092           0.0719721089338965 1.0000   
         C         C         1.0       0.5096970869066161  0.18791323121776074           0.09094463660498131          1.0000   
         C         C         1.0       0.5328837778353739  0.16503995812142336           0.08129663529915576          1.0000   
         C         C         1.0       0.5532693002754239  0.16981110729818305           0.04959692686555517          1.0000   
         C         C         1.0       0.5501428225450443  0.1977207354579594  0.029397646057631732         1.0000   
         C         C         1.0       0.5304417424391354  0.22147978190528572           0.04172826829294651          1.0000   
         C         C         1.0       0.5323567017075308  0.13339634850988857           0.10490966144327385          1.0000   
         C         C         1.0       0.48430393576763053           0.11827828070252222          0.22120214651089498          1.0000   
         C         C         1.0       0.48352523118735463           0.09474909631687667          0.19186135998911327          1.0000   
         C         C         1.0       0.4984763084844849  0.10134848936741368           0.15377130970633157          1.0000   
         C         C         1.0       0.5115831317294399  0.1301697489243634  0.14434548557217952          1.0000   
         C         C         1.0       0.5140560549500427  0.1507211797775322  0.17806527694743396          1.0000   
         C         C         1.0       0.5020697885219061  0.14476749265326078           0.2147995070847186 1.0000   
         C         C         1.0       0.5692049815584885  0.12350811995867872           0.1242320067764826 1.0000   
         C         C         1.0       0.5368941636069928  0.6755001035895383  0.22213256796963265          1.0000   
         C         C         1.0       0.5596485012318958  0.66863896056671    0.25379375021848527          1.0000   
         C         C         1.0       0.5656776841860303  0.6908353957422951  0.2844742865570401 1.0000   
         C         C         1.0       0.6145557728229134  0.13959310865204355           0.16762493733424436          1.0000   
         C         C         1.0       0.5895809793004045  0.14745767616373856           0.1404839715210173 1.0000   
         C         C         1.0       0.5289286148870936  0.0862840594963099  0.053320885281586516         1.0000   
         C         C         1.0       0.5108706772328759  0.06533020225475861           0.030828066442347035         1.0000   
         C         C         1.0       0.4786881600290914  0.07136133060667649           0.02612902993420607          1.0000   
         C         C         1.0       0.4642679448532567  0.09924887897319133           0.03724962501257334          1.0000   
         C         C         1.0       0.4831213051713034  0.12046552175554483           0.058010149775619135         1.0000   
         C         C         1.0       0.5144013763241364  0.1121336806777542  0.07046195162892155          1.0000   
         H         H         1.0       0.4975575196182429  0.31298391794178004           0.0012588268174182904        1.0000   
         H         H         1.0       0.5550445637923254  0.2701041586047393  0.09420295070278795          1.0000   
         H         H         1.0       0.5546823462433373  0.31398355109075027           0.13379429598898301          1.0000   
         H         H         1.0       0.4982977168145757  0.36138546264222854           0.040274695427215956         1.0000   
         H         H         1.0       0.5921530521767657  0.2514595839471212  0.035336103429041144         1.0000   
         H         H         1.0       0.636486182779945   0.26864599006512047           0.9988245641251514 1.0000   
         H         H         1.0       0.5732506138490439  0.30468113147232834           0.9051303412334119 1.0000   
         H         H         1.0       0.5265790551192148  0.2797568506726237  0.9373519122057445 1.0000   
         H         H         1.0       0.49020892276170464           0.2329023334791304 0.07687999994384254          1.0000   
         H         H         1.0       0.491391691405108   0.18403539781118017           0.11445630722373856          1.0000   
         H         H         1.0       0.5688503415592797  0.1517166620208933  0.03711403855429496          1.0000   
         H         H         1.0       0.5638815846790766  0.20111909975672917           0.0027243310919056185        1.0000   
         H         H         1.0       0.4679732700897153  0.07499555294484583           0.19372458812123042          1.0000   
         H         H         1.0       0.49631931560051484           0.08196655190297641          0.13144005945514525          1.0000   
         H         H         1.0       0.5282684280134247  0.17094477047366524           0.17572571675637103          1.0000   
         H         H         1.0       0.5029407246736298  0.16225726649969685           0.23787771824361412          1.0000   
         H         H         1.0       0.5305210419997848  0.6558730012693952  0.20032126368755776          1.0000   
         H         H         1.0       0.5712948762756308  0.6448680389278887  0.2541811514950816 1.0000   
         H         H         1.0       0.6287119002415739  0.15983712358068458           0.17887338743797376          1.0000   
         H         H         1.0       0.5853972143697166  0.17110001471753744           0.1326675868600392 1.0000   
         H         H         1.0       0.5547786938746103  0.0842678115176212  0.05794784172683132          1.0000   
         H         H         1.0       0.5206235295054623  0.041751441865601306         0.02217492050878178          1.0000   
         H         H         1.0       0.4381951359608687  0.10213334664116203           0.03447284398821404          1.0000   
         H         H         1.0       0.47059788189210866           0.14318641745687583          0.06911109097786206          1.0000   
         C         C         1.0       0.30043600895577904           0.5027962630895606 0.9341925943247688 1.0000   
         C         C         1.0       0.274412985732751   0.4973959612639656  0.9574049330086374 1.0000   
         C         C         1.0       0.27831252875745743           0.4813431540410968 0.9933468367029002 1.0000   
         C         C         1.0       0.3077305036215885  0.46989408441574737           0.007328276443681725         1.0000   
         C         C         1.0       0.3334806323990819  0.4735494309465175  0.9823240879909626 1.0000   
         C         C         1.0       0.3309417886663631  0.4897864155737486  0.9466033605674958 1.0000   
         H         H         1.0       0.2513440842004938  0.5068427463017554  0.9471439199699382 1.0000   
         H         H         1.0       0.25918970965916055           0.4815291058802492 0.015599145084416843         1.0000   
         H         H         1.0       0.35700269915103877           0.46817051311282076          0.9945381685314275 1.0000   
         H         H         1.0       0.3539049167078678  0.4910905643786156  0.930485336531616  1.0000   
         C         C         1.0       0.3369227917576428  0.4053480161796663  0.030638211370409785         1.0000   
         C         C         1.0       0.33739061761589556           0.4307555049525818 0.05821633566766482          1.0000   
         C         C         1.0       0.35356567403609335           0.425601667336742  0.09656829042345527          1.0000   
         C         C         1.0       0.3707906735415841  0.3985708919231895  0.10441105564769226          1.0000   
         C         C         1.0       0.3687464536172666  0.3730106172622712  0.07896687931421198          1.0000   
         C         C         1.0       0.35215251644882345           0.37689977171531275          0.042206498904073575         1.0000   
         C         C         1.0       0.3133573033234834  0.4594208684954947  0.05331024941945994          1.0000   
         C         C         1.0       0.2814791933974771  0.44339907376722565           0.06880245817529507          1.0000   
         C         C         1.0       0.27474808176591475           0.44631398053901233          0.1104327347596028 1.0000   
         C         C         1.0       0.2534183565298608  0.42704702599386424           0.12780246943922502          1.0000   
         C         C         1.0       0.23428420234861203           0.4066332434056752 0.10282925486621286          1.0000   
         C         C         1.0       0.2390661006388201  0.4046648374950948  0.06186667609503149          1.0000   
         C         C         1.0       0.262175365233033   0.4236444611716963  0.04518921120455044          1.0000   
         C         C         1.0       0.3562213566005669  0.5009238815979574  0.08089673775059647          1.0000   
         C         C         1.0       0.3644582597945078  0.5307306310766602  0.09007813634417139          1.0000   
         C         C         1.0       0.34235243788722924           0.5536351159249877 0.09979217095710236          1.0000   
         C         C         1.0       0.3109195385421186  0.5444432817463334  0.09868919301619195          1.0000   
         C         C         1.0       0.30049654261922737           0.5149168858382678 0.08729689426612697          1.0000   
         C         C         1.0       0.3233778203875094  0.4921644804330799  0.07713584428541154          1.0000   
         C         C         1.0       0.3513875600544228  0.5906422167920281  0.11407781837318165          1.0000   
         C         C         1.0       0.3706474022617327  0.5694692850037232  0.24437785831025638          1.0000   
         C         C         1.0       0.39543141698740236           0.5673970608862857 0.21832423329195083          1.0000   
         C         C         1.0       0.3893380874197438  0.5758693552186541  0.17689909695554995          1.0000   
         C         C         1.0       0.35928854235666063           0.5849716935433591 0.16234963650223877          1.0000   
         C         C         1.0       0.33334197048397063           0.5821776970142354 0.18894341838514794          1.0000   
         C         C         1.0       0.33921213233051495           0.5755949462991359 0.22969673517802974          1.0000   
         C         C         1.0       0.3244741655434724  0.6170453926635231  0.1057273530915881 1.0000   
         C         C         1.0       0.304422572910482   0.6166311197237814  0.06998567955788504          1.0000   
         C         C         1.0       0.29726615776072773           0.13290443556737963          0.07060450876059576          1.0000   
         C         C         1.0       0.2984444119544175  0.16369830345654376           0.08715489917446839          1.0000   
         C         C         1.0       0.32169880674661805           0.1696592669034118 0.11706181663005566          1.0000   
         C         C         1.0       0.322241085373154   0.6421611333674155  0.13325478187087714          1.0000   
         C         C         1.0       0.40202172437774747           0.6228473735590252 0.10817663560969004          1.0000   
         C         C         1.0       0.4285909415242886  0.631241068029403   0.08855732433786168          1.0000   
         C         C         1.0       0.4340557759220405  0.621014016175479   0.04908558651833639          1.0000   
         C         C         1.0       0.4094476579480338  0.6054123853940689  0.026760712473665293         1.0000   
         C         C         1.0       0.3811908407849221  0.5980097507592942  0.046223983943763924         1.0000   
         C         C         1.0       0.3782998150599403  0.6053949832606116  0.08750701983533227          1.0000   
         H         H         1.0       0.325785390777319   0.40417010684377247           0.0008639912027665897        1.0000   
         H         H         1.0       0.3513714200464726  0.44197857775247285           0.12181138719053708          1.0000   
         H         H         1.0       0.38111985074076843           0.3961597427583545 0.1352530047181053 1.0000   
         H         H         1.0       0.3500051030887658  0.35779926084618335           0.020884252921574253         1.0000   
         H         H         1.0       0.28890274992262527           0.46203165648859523          0.1315005868823469 1.0000   
         H         H         1.0       0.24962259261864964           0.4290776530880187 0.16070208113702877          1.0000   
         H         H         1.0       0.22488149103523622           0.38933085155024766          0.04456933879713243          1.0000   
         H         H         1.0       0.26397797861257005           0.42222370445720303          0.013091271489498402         1.0000   
         H         H         1.0       0.37571223474009885           0.4855862350158763 0.07232097776249469          1.0000   
         H         H         1.0       0.38984643367355937           0.534795240915685  0.08866830526694192          1.0000   
         H         H         1.0       0.29130665115976484           0.5611867455344387 0.10786863033891847          1.0000   
         H         H         1.0       0.27503769332618117           0.5112024391653133 0.08506258646201292          1.0000   
         H         H         1.0       0.42063114346923736           0.5615723359544146 0.22861028893694035          1.0000   
         H         H         1.0       0.40773271615031337           0.5710388772382822 0.156475608776097  1.0000   
         H         H         1.0       0.3087565126716291  0.5858887446692904  0.17765747749143657          1.0000   
         H         H         1.0       0.3195414815492804  0.5749670827223509  0.2512225242749508 1.0000   
         H         H         1.0       0.3054684859193341  0.5985881278123447  0.046558339756077816         1.0000   
         H         H         1.0       0.27820330612507477           0.12644792859183251          0.04918797347692294          1.0000   
         H         H         1.0       0.3223225279013969  0.19193773344422588           0.13433280356102592          1.0000   
         H         H         1.0       0.3378792537046503  0.6430860761090097  0.16215727362104904          1.0000   
         H         H         1.0       0.40309436144817085           0.6280855547372068 0.1398474154566154 1.0000   
         H         H         1.0       0.4467451783860002  0.6426935211044593  0.10655996581403815          1.0000   
         H         H         1.0       0.4118887887414167  0.5982330176120931  0.9946754258364254 1.0000   
         H         H         1.0       0.36190877277697564           0.5845133851605351 0.03363649198630281          1.0000   
         C         C         1.0       0.6547911455501219  0.5218882859114296  0.1893385388458147 1.0000   
         C         C         1.0       0.6658032705507794  0.5032054688434315  0.22138875153770177          1.0000   
         C         C         1.0       0.6508183856813611  0.5057527554095392  0.25910835276152316          1.0000   
         C         C         1.0       0.621502855625947   0.5227094417831343  0.26430373770795956          1.0000   
         C         C         1.0       0.6108316157016933  0.5391766843899857  0.23032565909261332          1.0000   
         C         C         1.0       0.6268067861821628  0.5393037199771388  0.1944368138684101 1.0000   
         H         H         1.0       0.6850870249931259  0.48551730567877077           0.2162940341681676 1.0000   
         H         H         1.0       0.6622253616905299  0.49102595477328403           0.28241611038603914          1.0000   
         H         H         1.0       0.591348240129021   0.554180482008346   0.22613508590571277          1.0000   
         H         H         1.0       0.6169764514296142  0.5527312253749758  0.16852830157275456          1.0000   
         C         C         1.0       0.6154437100334286  0.5848165707381001  0.3049355064892125 1.0000   
         C         C         1.0       0.5935012122959102  0.5628187722653495  0.3140884451091761 1.0000   
         C         C         1.0       0.5666635668009199  0.5732738338468697  0.3381856293901419 1.0000   
         C         C         1.0       0.5623948430046892  0.6035554291133174  0.3498788388667869 1.0000   
         C         C         1.0       0.5844665768114163  0.6252958969645637  0.33723923077119045          1.0000   
         C         C         1.0       0.6096851051289027  0.6158020263336844  0.31261507684587914          1.0000   
         C         C         1.0       0.6036651845554745  0.5253424606298339  0.30631750056364215          1.0000   
         C         C         1.0       0.6288184778477921  0.5148828250252935  0.34476102764071737          1.0000   
         C         C         1.0       0.6357473837818574  0.5345753961687949  0.379281805402494  1.0000   
         C         C         1.0       0.6499994493616087  0.5233150641499184  0.4142192584242617 1.0000   
         C         C         1.0       0.6597117368258821  0.4929170794600247  0.4148959839558402 1.0000   
         C         C         1.0       0.6546936825445038  0.4723877012425918  0.3831478571413061 1.0000   
         C         C         1.0       0.6390360181780775  0.48403511364100205           0.3498722838778502 1.0000   
         C         C         1.0       0.5511712730044939  0.5021415450005174  0.26989927149754317          1.0000   
         C         C         1.0       0.5234803233717349  0.4839721394495681  0.26833043451189287          1.0000   
         C         C         1.0       0.5146003700432199  0.4692390692207673  0.30469229561815947          1.0000   
         C         C         1.0       0.5320155061790881  0.47523416340946906           0.3405784514401315 1.0000   
         C         C         1.0       0.5619275611414029  0.49115560797833324           0.33948532572390444          1.0000   
         C         C         1.0       0.5716854742161532  0.5052234230727756  0.30435935331147684          1.0000   
         C         C         1.0       0.48521449375320796           0.44508578864568893          0.30180587731674885          1.0000   
         C         C         1.0       0.40321879618465967           0.5091926728599265 0.2962798559967553 1.0000   
         C         C         1.0       0.4138722414836508  0.4951823061908317  0.2619136057025812 1.0000   
         C         C         1.0       0.44008388933334963           0.47595833785236913          0.2638864861241327 1.0000   
         C         C         1.0       0.45615353970738004           0.46986140067957877          0.2995314383817004 1.0000   
         C         C         1.0       0.4463877694917384  0.4864201671348011  0.3344227140986127 1.0000   
         C         C         1.0       0.4202043348255697  0.5058595720629765  0.33187467434740014          1.0000   
         C         C         1.0       0.4818281789520459  0.42184353439432415           0.33913124714931586          1.0000   
         C         C         1.0       0.5079302770036476  0.40658719769576096           0.35977166630109286          1.0000   
         C         C         1.0       0.5040702370266982  0.3813732152390828  0.38536741885905   1.0000   
         C         C         1.0       0.47371162459578836           0.3714404728907379 0.3911412779414788 1.0000   
         C         C         1.0       0.4468403884919549  0.38599543130733605           0.37299595417086123          1.0000   
         C         C         1.0       0.4505343544746454  0.41106334624917495           0.34680497680437633          1.0000   
         C         C         1.0       0.4647040632884951  0.4038623798270796  0.24830251234137943          1.0000   
         C         C         1.0       0.46613914141451257           0.3832483381837564 0.21455638309283612          1.0000   
         C         C         1.0       0.4953870924082607  0.3791935980811842  0.1979491725567835 1.0000   
         C         C         1.0       0.5229340809410903  0.3916441368644756  0.21716701328313134          1.0000   
         C         C         1.0       0.5196965667814484  0.40991664848506637           0.25085662037529205          1.0000   
         C         C         1.0       0.48991350230042735           0.41908379001825724          0.2661968835737492 1.0000   
         H         H         1.0       0.6375326461414561  0.5777730335845972  0.2896238937665041 1.0000   
         H         H         1.0       0.5499474433946645  0.5576459518454491  0.3511549358808963 1.0000   
         H         H         1.0       0.541077018988659   0.6087889283135108  0.3683714268138928 1.0000   
         H         H         1.0       0.6254415436606506  0.6327468689957954  0.2987010449211074 1.0000   
         H         H         1.0       0.627316688491144   0.5592424085656974  0.37872152405029474          1.0000   
         H         H         1.0       0.6571048418783865  0.5392289221098916  0.4393696379598726 1.0000   
         H         H         1.0       0.6637938805365104  0.44874940090785276           0.3815429831275821 1.0000   
         H         H         1.0       0.635532336162001   0.46776039837556754           0.32509301229087695          1.0000   
         H         H         1.0       0.5553583262184435  0.5126959781976856  0.24162668416271746          1.0000   
         H         H         1.0       0.5092892026226612  0.4799289806440562  0.24088156130034605          1.0000   
         H         H         1.0       0.5254243526816966  0.46696434488479366           0.3709164288551323 1.0000   
         H         H         1.0       0.5719155803873729  0.4948985105826729  0.369901952947495  1.0000   
         H         H         1.0       0.399552889983494   0.4984180624153396  0.23466736386723536          1.0000   
         H         H         1.0       0.44859467953717713           0.4645539267245286 0.23541481284167076          1.0000   
         H         H         1.0       0.4607217790206832  0.48541804395554805           0.3614010630986267 1.0000   
         H         H         1.0       0.41388874898409933           0.5175138426201098 0.360376896479094  1.0000   
         H         H         1.0       0.5334479503048616  0.41025014805380644           0.35285332094250926          1.0000   
         H         H         1.0       0.5245755987543899  0.371300335477481   0.40094798194541487          1.0000   
         H         H         1.0       0.42249691310669446           0.3778824040720865 0.37936360914805217          1.0000   
         H         H         1.0       0.428996567555668   0.4197582290165654  0.32992281588090666          1.0000   
         H         H         1.0       0.4422955689970714  0.4051362040322726  0.26350708238220727          1.0000   
         H         H         1.0       0.4438008742239358  0.37444517408397293           0.20007519208688415          1.0000   
         H         H         1.0       0.5468336874052367  0.3843046581947054  0.20663868153315185          1.0000   
         H         H         1.0       0.5406870314970786  0.4223211855493677  0.2634109671053858 1.0000   
         C         C         1.0       0.18951669153392234           0.2493047876636179 0.6374379057504056 1.0000   
         C         C         1.0       0.17967828830777438           0.2305451515941133 0.6030291060458017 1.0000   
         C         C         1.0       0.19698313207065077           0.23319920512309553          0.5670058958814721 1.0000   
         C         C         1.0       0.2260524970573135  0.2494484919557529  0.5647809407717793 1.0000   
         C         C         1.0       0.23503793243387797           0.2690862557607217 0.5982708136472046 1.0000   
         C         C         1.0       0.21601399983961686           0.2689585960758572 0.6330731363111232 1.0000   
         H         H         1.0       0.160173424259012   0.21386473160015818           0.6029542170842365 1.0000   
         H         H         1.0       0.18495997500959374           0.22055004989476043          0.5404618007153388 1.0000   
         H         H         1.0       0.255315146621811   0.28430119998290293           0.599435827809381  1.0000   
         H         H         1.0       0.22196441836729797           0.2853623856349471 0.6571045352828391 1.0000   
         C         C         1.0       0.20421782180947148           0.2933718209289543 0.4954967031215146 1.0000   
         C         C         1.0       0.23578689003662684           0.28627947144202187          0.5102811633513781 1.0000   
         C         C         1.0       0.255100078180388   0.3120822113215144  0.5181459291565726 1.0000   
         C         C         1.0       0.2462184355996824  0.3416074797760817  0.5104069036301987 1.0000   
         C         C         1.0       0.21478971581722234           0.34872638336258777          0.49697768454577923          1.0000   
         C         C         1.0       0.19425384736425058           0.32344826019450557          0.4893599615182799 1.0000   
         C         C         1.0       0.24695959658598288           0.25052991005585473          0.5234535668734636 1.0000   
         C         C         1.0       0.23709314554314032           0.222181377986599  0.49121001339642717          1.0000   
         C         C         1.0       0.22726700459878973           0.2280253991556612 0.4498913322615007 1.0000   
         C         C         1.0       0.21899135273712556           0.20219659548744676          0.42405841113662385          1.0000   
         C         C         1.0       0.21789169709805475           0.17123108254409805          0.43836136237453155          1.0000   
         C         C         1.0       0.22763030593844752           0.16757311717667403          0.47803655909671655          1.0000   
         C         C         1.0       0.23830620865513058           0.19100667699794305          0.5037505834825705 1.0000   
         C         C         1.0       0.3002635409987303  0.2388632240719941  0.5605868086336536 1.0000   
         C         C         1.0       0.332486741542783   0.23268274264054958           0.5661511739459028 1.0000   
         C         C         1.0       0.3528212963764754  0.23267649041007724           0.5320950027705863 1.0000   
         C         C         1.0       0.3376761023026228  0.2381780911146301  0.49388214952453235          1.0000   
         C         C         1.0       0.30510172949626413           0.24565870922558064          0.49039612012195594          1.0000   
         C         C         1.0       0.2851896360512163  0.2439917061579938  0.5232143509844913 1.0000   
         C         C         1.0       0.391275119043511   0.22997099749731975           0.536512527208383  1.0000   
         C         C         1.0       0.4003710784579909  0.33203360139494104           0.5271314444503303 1.0000   
         C         C         1.0       0.39320710789875196           0.31999069287343995          0.5646910709454197 1.0000   
         C         C         1.0       0.39357794916945993           0.2878188220719505 0.5686148175432615 1.0000   
         C         C         1.0       0.3991906739643853  0.2672044047975017  0.5361040242000645 1.0000   
         C         C         1.0       0.40704267514238446           0.2808043210022068 0.49935390368242416          1.0000   
         C         C         1.0       0.4062121677315676  0.3120959007500571  0.4943294893530839 1.0000   
         C         C         1.0       0.4131999106734158  0.2097816601576658  0.504785487689221  1.0000   
         C         C         1.0       0.4017955650650644  0.19355002434220597           0.4713523662319862 1.0000   
         C         C         1.0       0.42291108546104667           0.18179520239723776          0.4428332281959794 1.0000   
         C         C         1.0       0.4550104130151522  0.185757859378352   0.44750348444338456          1.0000   
         C         C         1.0       0.4657958373774237  0.20465473242145166           0.47982147651777474          1.0000   
         C         C         1.0       0.44648915129296163           0.21464626705442202          0.5093103458652889 1.0000   
         C         C         1.0       0.4213726533349993  0.22000871735322264           0.6089061333975487 1.0000   
         C         C         1.0       0.42206703083961955           0.20287916895142039          0.6449139735651696 1.0000   
         C         C         1.0       0.4039340940765502  0.1760426065839623  0.646701827020291  1.0000   
         C         C         1.0       0.3875029776713374  0.16395770942284504           0.6145364320736312 1.0000   
         C         C         1.0       0.3872203370223096  0.1794821587522898  0.5781318873533411 1.0000   
         C         C         1.0       0.40210414609200695           0.2093740195310479 0.5761966126641289 1.0000   
         H         H         1.0       0.1876176264881524  0.2726030076342173  0.49163257269025723          1.0000   
         H         H         1.0       0.27988956955627825           0.3083334754415332 0.5313725049599792 1.0000   
         H         H         1.0       0.2615433642858263  0.36258923561525847           0.5158604005728424 1.0000   
         H         H         1.0       0.17008637266189178           0.32915837449056523          0.476345480892538  1.0000   
         H         H         1.0       0.22671383708282813           0.252172973521636  0.43857037043085645          1.0000   
         H         H         1.0       0.21010060704601552           0.2050048777335072 0.39394619904738215          1.0000   
         H         H         1.0       0.22480101563420352           0.1445295390827989 0.49134796113049606          1.0000   
         H         H         1.0       0.24316982263995374           0.18665722385462172          0.5378223473268426 1.0000   
         H         H         1.0       0.28460416481339207           0.23914789263694375          0.5860572780180554 1.0000   
         H         H         1.0       0.3421859364552778  0.22636408260084964           0.5960203845735274 1.0000   
         H         H         1.0       0.3511853317808583  0.24211135237084883           0.46530525062816   1.0000   
         H         H         1.0       0.29523669358695376           0.252079584911068  0.4604826514129324 1.0000   
         H         H         1.0       0.38907998726459425           0.3365992508407172 0.5901222899197749 1.0000   
         H         H         1.0       0.38573764365884483           0.280526429898134  0.5963441190642458 1.0000   
         H         H         1.0       0.4076084696436672  0.26573679927845945           0.47207480290140436          1.0000   
         H         H         1.0       0.4110993241837357  0.31948952643911555           0.4639862441448454 1.0000   
         H         H         1.0       0.37596824071567403           0.18639242190875646          0.46908335897483566          1.0000   
         H         H         1.0       0.41306250466760114           0.16797526033388388          0.4157720256427148 1.0000   
         H         H         1.0       0.4912762589377313  0.21103566772744328           0.485445251009858  1.0000   
         H         H         1.0       0.4574443447054664  0.2291577567798857  0.5335108967832104 1.0000   
         H         H         1.0       0.43198025670790124           0.24277217794488895          0.6110432103803234 1.0000   
         H         H         1.0       0.4317836061760063  0.21054740162649593           0.6750870852369029 1.0000   
         H         H         1.0       0.36389753179886764           0.6438826234241448 0.5913970967200868 1.0000   
         H         H         1.0       0.37163565254165476           0.17202914839722017          0.5529605073718509 1.0000   
         C         C         1.0       0.4212494802473534  0.250693287383566   0.8610075584014695 1.0000   
         C         C         1.0       0.45039428636409307           0.26636833621389755          0.8674382008215099 1.0000   
         C         C         1.0       0.4724686056960985  0.2635685803709578  0.8394317673975087 1.0000   
         C         C         1.0       0.46690660294288233           0.24975592505277677          0.8012608277167106 1.0000   
         C         C         1.0       0.43667362017469147           0.23596408082988105          0.7936926831792754 1.0000   
         C         C         1.0       0.41466352651246036           0.2364500384209778 0.823276905828713  1.0000   
         H         H         1.0       0.45586905336787303           0.280454124040261  0.8950880890589357 1.0000   
         H         H         1.0       0.49574726797834295           0.2733102970156374 0.8454009605593118 1.0000   
         H         H         1.0       0.4300557348573874  0.2280578317854592  0.7626938097484919 1.0000   
         H         H         1.0       0.39183737990226974           0.22392200026558762          0.8163335137262754 1.0000   
         C         C         1.0       0.4896294928794596  0.19002024914836707           0.7550309182597074 1.0000   
         C         C         1.0       0.4946482582016191  0.21987122197993764           0.7402633074663997 1.0000   
         C         C         1.0       0.5011240907606014  0.2237364057823847  0.6986561065726021 1.0000   
         C         C         1.0       0.5063688517805074  0.19711109551965025           0.6755035001777063 1.0000   
         C         C         1.0       0.49929458662402665           0.16728867845244652          0.6868520571531279 1.0000   
         C         C         1.0       0.4910456700876992  0.16410718065668056           0.7274149004987591 1.0000   
         C         C         1.0       0.4940403455940057  0.2508299326038081  0.769655798121525  1.0000   
         C         C         1.0       0.532055069997894   0.24678414347421934           0.7856252340940179 1.0000   
         C         C         1.0       0.5568077044452324  0.25632257559885235           0.761807372741679  1.0000   
         C         C         1.0       0.5884231158939827  0.2589225339922961  0.7791188886674234 1.0000   
         C         C         1.0       0.5962801730780376  0.24679231398201518           0.8160590044635038 1.0000   
         C         C         1.0       0.573296867388893   0.2326145035343479  0.8362360887239537 1.0000   
         C         C         1.0       0.5420722104931572  0.2317977828524451  0.8205900898023093 1.0000   
         C         C         1.0       0.46126412584522897           0.2862061380795344 0.7195345658621667 1.0000   
         C         C         1.0       0.45523556426966    0.3147397958585603  0.7010202097749711 1.0000   
         C         C         1.0       0.471859113583014   0.3410478401106246  0.7148452243668599 1.0000   
         C         C         1.0       0.4895276073329892  0.33927287212753876           0.7522201525994494 1.0000   
         C         C         1.0       0.4964663566204097  0.311012580129216   0.7704879003994938 1.0000   
         C         C         1.0       0.4838301317343095  0.28439967048699827           0.7514721448893317 1.0000   
         C         C         1.0       0.4713843362954526  0.37403875690151167           0.6945377782179583 1.0000   
         C         C         1.0       0.45382266685447636           0.3804939086974192 0.5632616398432656 1.0000   
         C         C         1.0       0.44637037984053773           0.40477500011834966          0.588044141941117  1.0000   
         C         C         1.0       0.4512003245205737  0.40230514513218746           0.6286463789666455 1.0000   
         C         C         1.0       0.4649232534266022  0.37611142962676863           0.6466166872525878 1.0000   
         C         C         1.0       0.47572833434574346           0.3525991827651278 0.6214476887322451 1.0000   
         C         C         1.0       0.470510843984803   0.3541393184336977  0.5797204349794878 1.0000   
         C         C         1.0       0.5060577065734669  0.3884735127416204  0.6978082082767413 1.0000   
         C         C         1.0       0.5329940379444185  0.3697758473476649  0.6913753862859611 1.0000   
         C         C         1.0       0.5639680317929131  0.3805207430630368  0.7012278724018007 1.0000   
         C         C         1.0       0.5673389386068715  0.4113605240212223  0.7165506891991279 1.0000   
         C         C         1.0       0.5410441338214097  0.4307334700927324  0.719075015689993  1.0000   
         C         C         1.0       0.5108342160928171  0.41982326719770824           0.7061580466907751 1.0000   
         C         C         1.0       0.4462711208132811  0.4075585072284232  0.7556086710366452 1.0000   
         C         C         1.0       0.42161897736072895           0.4182404249081509 0.7781021679955616 1.0000   
         C         C         1.0       0.3899350883749056  0.4117802698000306  0.7652380197406365 1.0000   
         C         C         1.0       0.385354540216296   0.39487834531922084           0.7287474929020648 1.0000   
         C         C         1.0       0.41130225361965433           0.3835965733129024 0.7071797975193762 1.0000   
         C         C         1.0       0.44258913092425    0.3885143434640845  0.7213387334805752 1.0000   
         H         H         1.0       0.4861286594139393  0.18904663462825058           0.7869988861179908 1.0000   
         H         H         1.0       0.5026583582016724  0.24668294839671698           0.6857628144885997 1.0000   
         H         H         1.0       0.5137691606715155  0.2020977461410989  0.644614381064545  1.0000   
         H         H         1.0       0.4884587638410379  0.14059450349570876           0.737214832665376  1.0000   
         H         H         1.0       0.5523785070246467  0.26339553181718595           0.7320227978849025 1.0000   
         H         H         1.0       0.6055631801796573  0.26896023706754485           0.761412487167551  1.0000   
         H         H         1.0       0.5784284752892752  0.221100137515695   0.8668391338824216 1.0000   
         H         H         1.0       0.5233558494738508  0.21756133771971556           0.8343064413823004 1.0000   
         H         H         1.0       0.44992783333887915           0.26640563900306413          0.7089218909522119 1.0000   
         H         H         1.0       0.4367070577301196  0.31806459586612973           0.6763783936632113 1.0000   
         H         H         1.0       0.5001989201470827  0.3600919531423821  0.7647033278335043 1.0000   
         H         H         1.0       0.5140658685561528  0.31138328165548684           0.7965835915796096 1.0000   
         H         H         1.0       0.43326724986565585           0.4257880429844512 0.5798469813376218 1.0000   
         H         H         1.0       0.4429085457788126  0.4215260876951061  0.6497052607191524 1.0000   
         H         H         1.0       0.48618874101056153           0.3302861814909081 0.6333150938128448 1.0000   
         H         H         1.0       0.4766574289537805  0.3338404837498399  0.5603374009449497 1.0000   
         H         H         1.0       0.5311461582065451  0.3476487678715667  0.6770293645164294 1.0000   
         H         H         1.0       0.5835794800310516  0.36295198038372617           0.6987006382838838 1.0000   
         H         H         1.0       0.5460288052159534  0.4537494500367733  0.7306595107623866 1.0000   
         H         H         1.0       0.48939841329351286           0.4339710128113168 0.7085498061925838 1.0000   
         H         H         1.0       0.4699043560666292  0.4135593826162313  0.768539903979134  1.0000   
         H         H         1.0       0.4284346956819165  0.4301644502909215  0.8073884173767982 1.0000   
         H         H         1.0       0.36000799570109215           0.38677054157358465          0.7186202959421794 1.0000   
         H         H         1.0       0.4059425512910201  0.3703256732852679  0.6791746964193763 1.0000   
         C         C         1.0       0.2738754911350305  0.540983008395175   0.8239374153220153 1.0000   
         C         C         1.0       0.24458454053642065           0.553229984730551  0.8115611839409408 1.0000   
         C         C         1.0       0.2430906054414958  0.5718674919363539  0.7776468644303574 1.0000   
         C         C         1.0       0.2699285736827061  0.5795118297180799  0.7557144985866756 1.0000   
         C         C         1.0       0.2995577005698686  0.5652877328921789  0.767491904936116  1.0000   
         C         C         1.0       0.3018286474998605  0.548133711634472   0.8031114845238713 1.0000   
         H         H         1.0       0.22400877806809846           0.5504201407703924 0.8333250535261506 1.0000   
         H         H         1.0       0.22015802326605624           0.5837599696090794 0.7711847913734082 1.0000   
         H         H         1.0       0.3212738163611886  0.5660779380128219  0.7503696159134289 1.0000   
         H         H         1.0       0.32253275913584517           0.5333736264637652 0.8115376191237805 1.0000   
         C         C         1.0       0.30996664814198105           0.6380624068681141 0.7370754195411304 1.0000   
         C         C         1.0       0.2900692679284292  0.625680776200343   0.7059979822985248 1.0000   
         C         C         1.0       0.2902862082697437  0.6383467885100118  0.6666069327964316 1.0000   
         C         C         1.0       0.3156752670408693  0.658454864157884   0.6568911397255934 1.0000   
         C         C         1.0       0.3355724398231255  0.6698786132475799  0.6887859439324595 1.0000   
         C         C         1.0       0.3313326179212455  0.659558217390705   0.7273460295984553 1.0000   
         C         C         1.0       0.2656878213142541  0.5953351295458433  0.7127560038865646 1.0000   
         C         C         1.0       0.23364157892088191           0.6160927810145198 0.7085907881275706 1.0000   
         C         C         1.0       0.21469753284786391           0.6158087982850862 0.6703483859447494 1.0000   
         C         C         1.0       0.19326172373987915           0.6402488884258475 0.6627365296524549 1.0000   
         C         C         1.0       0.18516247703093286           0.6617559219842357 0.6932853476780226 1.0000   
         C         C         1.0       0.2027937555581221  0.660445157689433   0.7287558517896823 1.0000   
         C         C         1.0       0.22776788684708366           0.6395389187691091 0.7361683476691441 1.0000   
         C         C         1.0       0.2970201233371675  0.5654517067569803  0.6586064425511564 1.0000   
         C         C         1.0       0.30498098980237776           0.5377396235106787 0.6373932929370718 1.0000   
         C         C         1.0       0.2835720922767408  0.5130296553747001  0.6314871542231925 1.0000   
         C         C         1.0       0.2535925346583769  0.5174015737035222  0.649268125707061  1.0000   
         C         C         1.0       0.24703856942056393           0.5445285956054942 0.6747882377548765 1.0000   
         C         C         1.0       0.2688337632323187  0.5680394388965955  0.6794440405127692 1.0000   
         C         C         1.0       0.2941976635090102  0.48056689182548445           0.6130405943397969 1.0000   
         C         C         1.0       0.3506485388427677  0.4762382209628965  0.5008956531940507 1.0000   
         C         C         1.0       0.35238900800729145           0.4529379647097189 0.5297127546014329 1.0000   
         C         C         1.0       0.33594327359532444           0.4551975192106451 0.5666062644665404 1.0000   
         C         C         1.0       0.31878077354940487           0.48205289117954775          0.5764425149696097 1.0000   
         C         C         1.0       0.31800011787220556           0.5054889677944142 0.5468851352918702 1.0000   
         C         C         1.0       0.3344707447975133  0.50307350982243    0.5111298388690704 1.0000   
         C         C         1.0       0.26643407309671785           0.4580773270428294 0.5939727834514573 1.0000   
         C         C         1.0       0.2683586883593415  0.4260958152909082  0.5961317495637051 1.0000   
         C         C         1.0       0.24426006841261652           0.40728021913047624          0.579854469712043  1.0000   
         C         C         1.0       0.22056170160130384           0.41914380899511017          0.5548892520181715 1.0000   
         C         C         1.0       0.22029623026508127           0.45112870768329844          0.5484157451971864 1.0000   
         C         C         1.0       0.24355750962213324           0.47066079912070746          0.567568517386507  1.0000   
         C         C         1.0       0.3428788548024089  0.4691915286965093  0.6622573161912024 1.0000   
         C         C         1.0       0.355702751764778   0.46756999917813424           0.7017670136881415 1.0000   
         C         C         1.0       0.33623497479213543           0.46231699623303996          0.7325402352501981 1.0000   
         C         C         1.0       0.3041361223189815  0.45515213907853685           0.725872232932066  1.0000   
         C         C         1.0       0.2909434182943424  0.4573489262025748  0.6869686375214804 1.0000   
         C         C         1.0       0.3092910449511451  0.4668669237883778  0.6545800961952876 1.0000   
         H         H         1.0       0.30939096663760546           0.6315682975698658 0.7697723341143206 1.0000   
         H         H         1.0       0.277172462077334   0.6288768738222504  0.640089294691516  1.0000   
         H         H         1.0       0.31785885603104813           0.6643895652401051 0.6243822223166794 1.0000   
         H         H         1.0       0.3481580801982697  0.6704910195520298  0.7515601789844636 1.0000   
         H         H         1.0       0.21779708534530998           0.59719475221691   0.6484561508715531 1.0000   
         H         H         1.0       0.18106756822967013           0.6425191813614656 0.6335855531098878 1.0000   
         H         H         1.0       0.1969407392624327  0.676582303513024   0.7501919818490403 1.0000   
         H         H         1.0       0.24172188676525128           0.6457265609376573 0.7644116978140035 1.0000   
         H         H         1.0       0.31436848525514755           0.5833718525508582 0.6602654535080595 1.0000   
         H         H         1.0       0.33019134854333915           0.5350760077406695 0.6297317920999884 1.0000   
         H         H         1.0       0.23538241726880196           0.49946441913987066          0.6443256554210262 1.0000   
         H         H         1.0       0.2235876946580406  0.5424933712097421  0.6890399410771008 1.0000   
         H         H         1.0       0.366363396642489   0.4320316323982882  0.5235690120465945 1.0000   
         H         H         1.0       0.3415160189501456  0.4363490212669852  0.5858460282308594 1.0000   
         H         H         1.0       0.30510818561314645           0.5271710784343383 0.5544907861165567 1.0000   
         H         H         1.0       0.32856408526185304           0.520323191657377  0.4877424445650554 1.0000   
         H         H         1.0       0.28510494115280277           0.4147429027952576 0.6170847598373967 1.0000   
         H         H         1.0       0.2430997758414579  0.38389161126348265           0.5908212437556479 1.0000   
         H         H         1.0       0.20335747496702247           0.4612259588787149 0.526697651890473  1.0000   
         H         H         1.0       0.24136948086350227           0.4966706671280742 0.5630180724000925 1.0000   
         H         H         1.0       0.35954824380792916           0.47773909401303605          0.6395248315604112 1.0000   
         H         H         1.0       0.38042937194504134           0.4696596891929267 0.7066210604244546 1.0000   
         H         H         1.0       0.28815269730809434           0.4483613064052295 0.7507205785832528 1.0000   
         H         H         1.0       0.26590434127197443           0.4519647864823535 0.6821233750976509 1.0000   
         C         C         1.0       0.6280112445961853  0.6273425933638862  0.6754879118335256 1.0000   
         C         C         1.0       0.6341406620896117  0.6263034845889673  0.6341485924682876 1.0000   
         C         C         1.0       0.6237287891211911  0.6006336555746774  0.6094526074276357 1.0000   
         C         C         1.0       0.6073578932546048  0.5749670896427848  0.6276050282200215 1.0000   
         C         C         1.0       0.5980922928034841  0.5785378963320247  0.668470769908557  1.0000   
         C         C         1.0       0.6101473451896908  0.6025117528897908  0.6912053229368024 1.0000   
         H         H         1.0       0.6447997991420965  0.6447198492159455  0.6171666488347511 1.0000   
         H         H         1.0       0.6246811095476882  0.598549057180161   0.5772647326228955 1.0000   
         H         H         1.0       0.5831626652359981  0.561230420461822   0.6803181475841744 1.0000   
         H         H         1.0       0.6071741250082229  0.6024426535737547  0.7250657308621536 1.0000   
         C         C         1.0       0.6262154049977614  0.5114884117789118  0.6615894390240707 1.0000   
         C         C         1.0       0.6002897213326409  0.5133368532535321  0.6325335870235532 1.0000   
         C         C         1.0       0.5823274283383538  0.48546846325586035           0.6280778039286228 1.0000   
         C         C         1.0       0.5912422086807276  0.4572995723486174  0.6460330474289689 1.0000   
         C         C         1.0       0.6170107045297551  0.45648295785256443           0.673329959547612  1.0000   
         C         C         1.0       0.6346735105337242  0.4833526404307301  0.6805618588814825 1.0000   
         C         C         1.0       0.5955722024299683  0.543582059570144   0.6050599693855461 1.0000   
         C         C         1.0       0.6159186238371851  0.5302157527770809  0.565583142914802  1.0000   
         C         C         1.0       0.6012990984594827  0.5124956092787875  0.5343599825740164 1.0000   
         C         C         1.0       0.6191026613134705  0.4968676727345219  0.5049305456232287 1.0000   
         C         C         1.0       0.6521982840281858  0.49316895851686404           0.5109819725743074 1.0000   
         C         C         1.0       0.667459234220884   0.5128172831853188  0.5416177361625973 1.0000   
         C         C         1.0       0.6485113693347706  0.5307492679643165  0.5672129365358134 1.0000   
         C         C         1.0       0.5324593316357857  0.5428658165826595  0.6156440082507407 1.0000   
         C         C         1.0       0.500212816151441   0.5507881685692605  0.605690897242577  1.0000   
         C         C         1.0       0.49314758003956355           0.568222297767692  0.5719807321534829 1.0000   
         C         C         1.0       0.5183077541407481  0.5761999183703124  0.5474434716210421 1.0000   
         C         C         1.0       0.5509637924309397  0.5720436716652749  0.5613064001466118 1.0000   
         C         C         1.0       0.5581523176895717  0.5526964410467692  0.5926546690396908 1.0000   
         C         C         1.0       0.4566399121921617  0.5744446462432752  0.5573991995161894 1.0000   
         C         C         1.0       0.4247068150189605  0.49002947246644607           0.48783414201466724          1.0000   
         C         C         1.0       0.4289271890259768  0.4892343069443557  0.5302272494956786 1.0000   
         C         C         1.0       0.44024448424044466           0.5152717012602391 0.5522650439655851 1.0000   
         C         C         1.0       0.44741471395808563           0.5428178649619185 0.531566379996316  1.0000   
         C         C         1.0       0.44522408098455585           0.5417757578197134 0.4891686864903769 1.0000   
         C         C         1.0       0.4316437122399209  0.5174885317799428  0.46749558432028054          1.0000   
         C         C         1.0       0.44893121451096046           0.6080466478235728 0.534328050149409  1.0000   
         C         C         1.0       0.4700012754056142  0.633320880948563   0.5409954213312264 1.0000   
         C         C         1.0       0.4717278235020808  0.6574950264899603  0.5129004297091174 1.0000   
         C         C         1.0       0.4498726658799071  0.6579690697168591  0.4788870045940464 1.0000   
         C         C         1.0       0.4251436948121552  0.6363191252197266  0.47726373441093456          1.0000   
         C         C         1.0       0.42354025837996023           0.6120003339231718 0.5047613430528137 1.0000   
         C         C         1.0       0.40895418171855547           0.564843699514059  0.6058668236873619 1.0000   
         C         C         1.0       0.402606948196346   0.5597288943533688  0.6453707375082138 1.0000   
         C         C         1.0       0.4204529708686206  0.5728478460064343  0.6760773006644389 1.0000   
         C         C         1.0       0.4452738589903844  0.5927539990614404  0.6672683227285802 1.0000   
         C         C         1.0       0.4494147639934902  0.5998104328498994  0.6278256682630268 1.0000   
         C         C         1.0       0.43633296979400477           0.5803658549739801 0.597060695748567  1.0000   
         H         H         1.0       0.6393531202621592  0.531124405707439   0.6680123933802214 1.0000   
         H         H         1.0       0.5642734508745979  0.48353668022359375           0.6033879153094699 1.0000   
         H         H         1.0       0.5775422876558394  0.43460130530363433           0.637479091928776  1.0000   
         H         H         1.0       0.6540226501651312  0.4822816689478148  0.701474607365127  1.0000   
         H         H         1.0       0.5749125360668632  0.5090023114545827  0.5333876760667973 1.0000   
         H         H         1.0       0.6042694280384874  0.48205249425045366           0.4830558883029283 1.0000   
         H         H         1.0       0.6936919906689533  0.5115236207274602  0.5432033509885876 1.0000   
         H         H         1.0       0.6580962348816369  0.5446020679330582  0.5921579201785732 1.0000   
         H         H         1.0       0.5359334981510274  0.5259468702765845  0.6382808049250209 1.0000   
         H         H         1.0       0.4801117837155392  0.5416631114296748  0.6217120600673594 1.0000   
         H         H         1.0       0.5131911148505474  0.5851763498557324  0.5180279301461557 1.0000   
         H         H         1.0       0.5697573436889594  0.5794558145031719  0.542875697840235  1.0000   
         H         H         1.0       0.4231534735059506  0.46842470261516755           0.5457272274116997 1.0000   
         H         H         1.0       0.4410165748082095  0.5155651402569854  0.584872807731507  1.0000   
         H         H         1.0       0.44957840640515223           0.5627515693824388 0.47098989201480235          1.0000   
         H         H         1.0       0.4230851106495794  0.5202677388797781  0.43650315545822593          1.0000   
         H         H         1.0       0.48375749398481216           0.6369500039147737 0.5674084519354857 1.0000   
         H         H         1.0       0.5194581360161068  0.10915381995920126           0.4291666582565776 1.0000   
         H         H         1.0       0.411311132959759   0.6349657597636937  0.4489496476856834 1.0000   
         H         H         1.0       0.4050434842084489  0.5932864782838265  0.5041423134428511 1.0000   
         H         H         1.0       0.3917719009344861  0.5553417552996945  0.5839604017426399 1.0000   
         H         H         1.0       0.38264728268053344           0.5437773707379128 0.6503177313137424 1.0000   
         H         H         1.0       0.4590888463574645  0.6047227084997746  0.69038604130005   1.0000   
         H         H         1.0       0.4666990396247675  0.6183023350933672  0.6231947616305666 1.0000   
         C         C         1.0       0.36895556223615456           0.470661493521251  0.46232496183909344          1.0000   
         C         C         1.0       0.40664883629142723           0.4636334367952299 0.4667984326382455 1.0000   
         H         H         1.0       0.35718465329943494           0.45091768279416994          0.4469942139625918 1.0000   
         H         H         1.0       0.3633361506516351  0.4930664857401962  0.4423167166101197 1.0000   
         H         H         1.0       0.4169888079025164  0.4612534289108397  0.4376169941538749 1.0000   
         H         H         1.0       0.4141382554375553  0.44061724829579063           0.4836081865422659 1.0000   
         C         C         1.0       0.3611609182862423  0.4251351675894521  0.7886929556840508 1.0000   
         C         C         1.0       0.35217201656394537           0.4592746807907836 0.7760851081167066 1.0000   
         H         H         1.0       0.3702529624709423  0.42657283921460887           0.8208402109053975 1.0000   
         H         H         1.0       0.341350654635742   0.41106089076190666           0.7896353800831761 1.0000   
         H         H         1.0       0.3732320576501318  0.47386954831304495           0.7813630418327802 1.0000   
         H         H         1.0       0.33445840192953746           0.467178284267177  0.7984971545291549 1.0000   
         C         C         1.0       0.6005472668392648  0.42213412273308    0.7329309274993262 1.0000   
         C         C         1.0       0.6245555848748174  0.4276065861750617  0.6973769959471412 1.0000   
         H         H         1.0       0.5978716962335423  0.4423296640461051  0.7566753915567102 1.0000   
         H         H         1.0       0.6114893411864789  0.4023665401501134  0.7511904778537251 1.0000   
         H         H         1.0       0.6224707338679445  0.40524342550187964           0.676771213839925  1.0000   
         H         H         1.0       0.6499879338236166  0.42608193012727097           0.7101451076383132 1.0000   
         C         C         1.0       0.49028818745686614           0.1451144067432221 0.6123221284727162 1.0000   
         C         C         1.0       0.49807572928060645           0.1393430565729726 0.6577827156638134 1.0000   
         H         H         1.0       0.5109945870747717  0.15878040957817305           0.6016836688698394 1.0000   
         H         H         1.0       0.47051020583645725           0.16221667169198187          0.6097865121804423 1.0000   
         H         H         1.0       0.47845453419463674           0.1254739046382953 0.6701103893540824 1.0000   
         H         H         1.0       0.5187766743430761  0.12308821163537152           0.6594264352912963 1.0000   
         C         C         1.0       0.43065225524153083           0.6833049612052801 0.40923000747381233          1.0000   
         C         C         1.0       0.47150756452786646           0.14200909370194567          0.39103594665451824          1.0000   
         H         H         1.0       0.4266044502698246  0.6617391954561075  0.39210134495744703          1.0000   
         H         H         1.0       0.5036327957419503  0.17354705079947552           0.430786729056267  1.0000   
         H         H         1.0       0.48955411130582865           0.13727293250686712          0.36714541943320633          1.0000   
         H         H         1.0       0.45119946368779645           0.14365679558947525          0.36964243905651917          1.0000   
         C         C         1.0       0.19463049483565542           0.3990794283483959 0.5366399376083247 1.0000   
         C         C         1.0       0.20101302356023787           0.38232162966950567          0.4942111315972122 1.0000   
         H         H         1.0       0.17405631748257888           0.4134631741398603 0.5332475056300063 1.0000   
         H         H         1.0       0.1842193749591831  0.38238686453292897           0.5584331096121276 1.0000   
         H         H         1.0       0.2191085050123473  0.3972768776867866  0.48102519979893205          1.0000   
         H         H         1.0       0.1777926877194654  0.3870242297860121  0.4743411044161694 1.0000   
         C         C         1.0       0.38744732007927934           0.6805818758744104 0.6532268337514517 1.0000   
         C         C         1.0       0.36338595297259574           0.6949906986694485 0.6829590693687391 1.0000   
         H         H         1.0       0.3892714630652744  0.6542820663038529  0.6570754345407782 1.0000   
         H         H         1.0       0.4129566371588086  0.6871019733249929  0.6628177444091626 1.0000   
         H         H         1.0       0.3516560034690214  0.7162932211641564  0.6673054054282135 1.0000   
         H         H         1.0       0.3731360217938098  0.7042465250846828  0.710546899123288  1.0000   
         C         C         1.0       0.40443379950839664           0.3688969805579257 0.5188211282499385 1.0000   
         C         C         1.0       0.43978953710495594           0.3794983941766578 0.5197206414811395 1.0000   
         H         H         1.0       0.3914405715882812  0.3827898599976279  0.5409611474553703 1.0000   
         H         H         1.0       0.3940770339236036  0.37462331716969766           0.4884670769088389 1.0000   
         H         H         1.0       0.4438278925934264  0.4042602912944902  0.5080703615081756 1.0000   
         H         H         1.0       0.45501785775005243           0.36496298003793115          0.5000529309710917 1.0000   
         C         C         1.0       0.6840326809804921  0.48407261076605235           0.44930688770443644          1.0000   
         C         C         1.0       0.6729386882836157  0.4711153899061973  0.4873178261933227 1.0000   
         H         H         1.0       0.7043101623367112  0.46720518801692157           0.43724730593137096          1.0000   
         H         H         1.0       0.7028024683031248  0.5033089304247491  0.4597883923777983 1.0000   
         H         H         1.0       0.6930781033263177  0.4593164690529292  0.5055267428968896 1.0000   
         H         H         1.0       0.6580080027785147  0.45134940504463505           0.47407161982574925          1.0000   
         C         C         1.0       0.2741666880486362  0.5181642588515556  0.8598096716994442 1.0000   
         C         C         1.0       0.29798599087366834           0.5238353197162509 0.8967289145618518 1.0000   
         H         H         1.0       0.24924986621878797           0.5153894444888776 0.8729020943383076 1.0000   
         H         H         1.0       0.28436913844252293           0.49557953740436783          0.848536550382072  1.0000   
         H         H         1.0       0.2919908644632003  0.5492711491365886  0.9043887961644443 1.0000   
         H         H         1.0       0.32263815601677714           0.5253639394099623 0.888953428572352  1.0000   
         C         C         1.0       0.37639559302497655           0.5610765239351542 0.28933654301156086          1.0000   
         C         C         1.0       0.37038371019030913           0.5267373964666671 0.29836958471821334          1.0000   
         H         H         1.0       0.3585077903724771  0.5742062666306912  0.30589455828956846          1.0000   
         H         H         1.0       0.40043165224488464           0.5682215106441784 0.2993843265044026 1.0000   
         H         H         1.0       0.3524576428872046  0.5169458012355642  0.27735713844207455          1.0000   
         H         H         1.0       0.36118375325931296           0.5242582456015541 0.32947397952827123          1.0000   
         C         C         1.0       0.39577373531499804           0.25155998075067365          0.8939096489909135 1.0000   
         C         C         1.0       0.400333165440324   0.22871003321564512           0.9287728711905618 1.0000   
         H         H         1.0       0.3916807833828798  0.27606123850595204           0.9065631069181154 1.0000   
         H         H         1.0       0.3728918436933715  0.24499895535843824           0.877299215912119  1.0000   
         H         H         1.0       0.3982414497422923  0.2052344916298807  0.913514316150953  1.0000   
         H         H         1.0       0.37761081310768263           0.23283808201496756          0.9470330301823537 1.0000   
         C         C         1.0       0.46797204768247586           0.6245759383584606 0.03000439001897437          1.0000   
         C         C         1.0       0.4576603903476284  0.042499498600873764         0.01545615283761248          1.0000   
         H         H         1.0       0.4677269813385936  0.6109532437356615  0.0008198322307657602        1.0000   
         H         H         1.0       0.486623008195857   0.6130009838173087  0.051433296244905335         1.0000   
         H         H         1.0       0.4359276185636068  0.04810445977254463           0.9959834816970056 1.0000   
         H         H         1.0       0.47295388139856753           0.02553390792715038          0.9987863881856055 1.0000   
         C         C         1.0       0.5904454830908776  0.6867103238437026  0.319297682419607  1.0000   
         C         C         1.0       0.5810810434981959  0.6604602066556395  0.3505597586871123 1.0000   
         H         H         1.0       0.59506404564477    0.7094411543721055  0.33678203574412496          1.0000   
         H         H         1.0       0.6142335477243126  0.680504660098125   0.30737674091603484          1.0000   
         H         H         1.0       0.5555873709021105  0.6650738580305502  0.3616358649300566 1.0000   
         H         H         1.0       0.5972805258918457  0.6657825208893291  0.377583097090109  1.0000   
         C         C         1.0       0.4962142454666932  0.357827143154903   0.15914302604387998          1.0000   
         C         C         1.0       0.5191605090532045  0.3671533592884554  0.12556644522444824          1.0000   
         H         H         1.0       0.4996117813007308  0.33303068331050784           0.16842870028785337          1.0000   
         H         H         1.0       0.4728097264446063  0.3593180230318113  0.14077032148918267          1.0000   
         H         H         1.0       0.542332165807439   0.37618372309234865           0.1386070587118873 1.0000   
         H         H         1.0       0.5060987753545146  0.3885995612170684  0.11012654092616869          1.0000   
         C         C         1.0       0.22619567061418094           0.13004017586648353          0.3793501693174388 1.0000   
         C         C         1.0       0.204279973887756   0.1425601133849271  0.413387961256728  1.0000   
         H         H         1.0       0.21433006343503738           0.11084264952750944          0.3613758010043618 1.0000   
         H         H         1.0       0.24800215846999646           0.12037123660102456          0.39319636543629594          1.0000   
         H         H         1.0       0.1823590219928608  0.15207208934554878           0.40189521647751497          1.0000   
         H         H         1.0       0.19570565422068498           0.12303502116125943          0.4285935352167526 1.0000   
         C         C         1.0       0.4684232492721271  0.3455004599861275  0.41838018730975585          1.0000   
         C         C         1.0       0.4790798208874632  0.31358819558406403           0.40070173375465645          1.0000   
         H         H         1.0       0.4815924689321114  0.3520501794350598  0.4482758548924472 1.0000   
         H         H         1.0       0.4415865430014915  0.3443352362548898  0.42797503333557635          1.0000   
         H         H         1.0       0.47843985627499797           0.29680569552408725          0.42825889585842924          1.0000   
         H         H         1.0       0.505042951717434   0.3169402099083985  0.39108477684015375          1.0000   
         C         C         1.0       0.23959974743670218           0.18401987612175036          0.09837364938396485          1.0000   
         C         C         1.0       0.2723951262282142  0.18883669060549121           0.07927969997263817          1.0000   
         H         H         1.0       0.2319580021441367  0.15965113354281912           0.09636581470078687          1.0000   
         H         H         1.0       0.22029559242369542           0.19681065116036983          0.08432090213667663          1.0000   
         H         H         1.0       0.2661668611160087  0.18769168465617334           0.047039537922854535         1.0000   
         H         H         1.0       0.2818766767914108  0.21349656303463038           0.08404015926074603          1.0000   
         C         C         1.0       0.4156662193265817  0.3386517923984853  0.11502061467898961          1.0000   
         C         C         1.0       0.38315279465102914           0.3387645541874697 0.08943705605691243          1.0000   
         H         H         1.0       0.42162281147819203           0.36430744017499245          0.12167510500669532          1.0000   
         H         H         1.0       0.43723789233880395           0.33208711230069327          0.09507676550317612          1.0000   
         H         H         1.0       0.3841835063148333  0.3244805362854917  0.059711570572958284         1.0000   
         H         H         1.0       0.3654171279118192  0.32579038172796965           0.10871416740752693          1.0000   
         C         C         1.0       0.43465425645829064           0.12434333717684563          0.26448706432628877          1.0000   
         C         C         1.0       0.46952908537289245           0.11454755589361641          0.2621631162808852 1.0000   
         H         H         1.0       0.42065394970694625           0.11468685964945169          0.23814658716479203          1.0000   
         H         H         1.0       0.426207229143185   0.11581184479023521           0.29406152972799054          1.0000   
         H         H         1.0       0.47028952269368457           0.08856759072936836          0.26900500625978874          1.0000   
         H         H         1.0       0.48194675141959126           0.12636198775690644          0.28968998289550824          1.0000   
         C         C         1.0       0.13132891768243993           0.6863497003158449 0.7174542502994138 1.0000   
         C         C         1.0       0.15972702021872653           0.6875696574990184 0.6883380458226565 1.0000   
         H         H         1.0       0.11302376167334649           0.705647664500529  0.7085958643747364 1.0000   
         H         H         1.0       0.14147121940204976           0.6949984568171166 0.7480126516655828 1.0000   
         H         H         1.0       0.14962810150867023           0.6854809221080881 0.6561552124429755 1.0000   
         H         H         1.0       0.1706311629909829  0.7131005422290388  0.688193066177402  1.0000   
         C         C         1.0       0.6722572055499507  0.63696086444969    0.7351132768621157 1.0000   
         C         C         1.0       0.644638779677917   0.651153622211037   0.704823465690652  1.0000   
         H         H         1.0       0.6612662653048231  0.6209533529808852  0.7576730839753486 1.0000   
         H         H         1.0       0.6818134665938472  0.6560675873025885  0.7549689096245499 1.0000   
         H         H         1.0       0.658762504027475   0.666865135704113   0.6857552910264508 1.0000   
         H         H         1.0       0.6291907724980744  0.6667170199593396  0.7204005505059367 1.0000   
         C         C         1.0       0.8917010281921228  0.43114142893634627           0.7986234600135872 1.0000   
         C         C         1.0       0.926335681630429   0.4345610563770193  0.7852405222661303 1.0000   
         H         H         1.0       0.8876659556250271  0.4455153012379654  0.827175344942591  1.0000   
         H         H         1.0       0.8865668286207835  0.4062771765887101  0.8063858693800448 1.0000   
         H         H         1.0       0.9406476229578459  0.4314420155512628  0.8129520500696491 1.0000   
         H         H         1.0       0.931146193387402   0.4188545849412591  0.7597990954762245 1.0000   
         C         C         1.0       0.6307364180074901  0.25240509797242877           0.8348870818142432 1.0000   
         C         C         1.0       0.6561754229544048  0.22744360057881932           0.8183868976363554 1.0000   
         H         H         1.0       0.6356812382619449  0.27787520183617875           0.8275321058128694 1.0000   
         H         H         1.0       0.6319759491225251  0.25205247419978033           0.8686243191562197 1.0000   
         H         H         1.0       0.6522457057052528  0.20528171105800894           0.8360784787604596 1.0000   
         H         H         1.0       0.6489619483734869  0.22114901874746637           0.786936576891638  1.0000   
         C         C         1.0       0.9408392682869496  0.16223859533104598           0.9137951029361567 1.0000   
         C         C         1.0       0.8290379235027634  0.6238908984851417  0.8383117492576411 1.0000   
         H         H         1.0       0.947541610280243   0.17868889509681332           0.9404218880014318 1.0000   
         H         H         1.0       0.9188262728436276  0.15187438837900805           0.9246600218832052 1.0000   
         H         H         1.0       0.8279680377854471  0.6072724472287176  0.8643927741580338 1.0000   
         H         H         1.0       0.8411128796373794  0.6441535419105652  0.855003675278323  1.0000   
         C         C         1.0       0.867794629830055   0.6872529592902867  0.5459860112076369 1.0000   
         C         C         1.0       0.841497634703521   0.6680768738600634  0.5232770445168813 1.0000   
         H         H         1.0       0.8787252241490642  0.7069351153057745  0.5275605303868246 1.0000   
         H         H         1.0       0.8877901986748694  0.6679295457973732  0.5502164527351981 1.0000   
         H         H         1.0       0.8525946994448096  0.6542583962336418  0.4990846139976263 1.0000   
         H         H         1.0       0.8255687598037448  0.68608089383609    0.5070295124763862 1.0000   
         C         C         1.0       0.7073635523301628  0.40642622024348823           0.7655237299360238 1.0000   
         C         C         1.0       0.7285913314796548  0.4071728409507003  0.807283737914021  1.0000   
         H         H         1.0       0.6855327195524864  0.41842317398478657           0.7694686622765674 1.0000   
         H         H         1.0       0.6991358306676506  0.3817177799377904  0.7598755660998988 1.0000   
         H         H         1.0       0.7470333221381305  0.4249063647855542  0.8117207590124162 1.0000   
         H         H         1.0       0.7134402864153427  0.41488451868030896           0.8315940200859301 1.0000   
         C         C         1.0       0.1418655823714856  0.26079999876499294           0.6851392308073138 1.0000   
         C         C         1.0       0.17206682503857862           0.24189637041463954          0.6787294740184446 1.0000   
         H         H         1.0       0.14848909529171928           0.2842972549249757 0.6835354561934374 1.0000   
         H         H         1.0       0.13514788866505323           0.25826395149132775          0.7174407990807902 1.0000   
         H         H         1.0       0.18946099711882458           0.24515658698649218          0.7047153405970451 1.0000   
         H         H         1.0       0.16451149128663767           0.2176187936851007 0.6776887426586755 1.0000   
         C         C         1.0       0.8569284780904369  0.3740968984579176  0.500198065421571  1.0000   
         C         C         1.0       0.8408788607115424  0.4070921230308331  0.4959155205913492 1.0000   
         H         H         1.0       0.8419861399257451  0.35939629305640336           0.5211970616770091 1.0000   
         H         H         1.0       0.8622086097455214  0.3623817938746536  0.46943189935444735          1.0000   
         H         H         1.0       0.8170981297957997  0.40531433376847803           0.47591247883876286          1.0000   
         H         H         1.0       0.8560024362929834  0.4242267907276987  0.47878180663065284          1.0000   
         C         C         1.0       0.9447526983491422  0.13121448646210987           0.5910034574857277 1.0000   
         C         C         1.0       0.9536267306185673  0.09927273440719243           0.6079111706486323 1.0000   
         H         H         1.0       0.9230629429673894  0.14315529068206337           0.6040315589629702 1.0000   
         H         H         1.0       0.9371744348083338  0.1279677483976529  0.5586114011258351 1.0000   
         H         H         1.0       0.9350039209197925  0.08234199940428866           0.5972481124986102 1.0000   
         H         H         1.0       0.9780394606915407  0.09241129463645525           0.5947493216153023 1.0000   
         C         C         1.0       0.08296462714056285           0.4696839164429089 0.56085091878731   1.0000   
         C         C         1.0       0.09742361262589783           0.47436390508048454          0.6059302584043618 1.0000   
         H         H         1.0       0.10072175795476057           0.46323903161162877          0.5398885289048341 1.0000   
         H         H         1.0       0.07273137816691366           0.49282070690873064          0.5516921928872278 1.0000   
         H         H         1.0       0.08984875233258416           0.45164507098215995          0.6214468764011151 1.0000   
         H         H         1.0       0.12418255517611865           0.47290262000205624          0.6042368727915773 1.0000   
         C         C         1.0       0.004512847661237718          0.37272571669832383          0.7526602915802569 1.0000   
         C         C         1.0       0.008042862384719518          0.3396989161570244 0.7721255977948239 1.0000   
         H         H         1.0       0.022311634655613144          0.39067416747891454          0.7656387637562453 1.0000   
         H         H         1.0       0.9817430845691213  0.3818886425058913  0.7668941424169258 1.0000   
         H         H         1.0       0.010064137306717624          0.34586420676927504          0.8063874541888795 1.0000   
         H         H         1.0       0.031093690434198296          0.3293738855654996 0.7647520107208051 1.0000   
         C         C         1.0       0.6939546223152363  0.5577320221477361  0.1466949832273668 1.0000   
         C         C         1.0       0.6755462495772304  0.5245615102028459  0.14931029041890448          1.0000   
         H         H         1.0       0.6748230647338815  0.5763601334037147  0.14076305867421243          1.0000   
         H         H         1.0       0.7090682454808733  0.5590325646852866  0.11881870564336716          1.0000   
         H         H         1.0       0.6903545386938686  0.5018240174415902  0.15235078492746237          1.0000   
         H         H         1.0       0.6608555877220761  0.5205829198053117  0.12152318962861773          1.0000   
         C         C         1.0       0.6763904891073911  0.6338719113039502  0.4438827790186891 1.0000   
         C         C         1.0       0.6598273035542149  0.6127195960852273  0.47452267186048686          1.0000   
         H         H         1.0       0.6934167538012999  0.6520666061849627  0.4551850556282439 1.0000   
         H         H         1.0       0.6587063919338357  0.6483123270963395  0.4269687397374126 1.0000   
         H         H         1.0       0.6498608347961579  0.5907422183521127  0.4574682572110367 1.0000   
         H         H         1.0       0.6386787969072766  0.6240031484153262  0.4891426169573339 1.0000   
         C         C         1.0       0.18466454085963185           0.39568587340438105          0.14735993723775853          1.0000   
         C         C         1.0       0.21070507037250277           0.38239628549464805          0.11884664904196462          1.0000   
         H         H         1.0       0.19931185720637137           0.4075717235398857 0.17253469584740455          1.0000   
         H         H         1.0       0.17343508529875187           0.37579594180763914          0.1632238056014539 1.0000   
         H         H         1.0       0.2248941943046628  0.36546298316375003           0.137418534874014  1.0000   
         H         H         1.0       0.19990793527336698           0.3672545508320599 0.09223590508321777          1.0000   
         C         C         1.0       0.04896142841910889           0.49737783380669026          0.9137683374625671 1.0000   
         C         C         1.0       0.07887794486882016           0.5034959693881496 0.8900996615060213 1.0000   
         H         H         1.0       0.0366058329498653  0.47526387674532994           0.9025301144503903 1.0000   
         H         H         1.0       0.02954215860161913           0.5152498830496104 0.9137087290831408 1.0000   
         H         H         1.0       0.0971711448504724  0.5171225292116457  0.9086845728262151 1.0000   
         H         H         1.0       0.09050851729020559           0.4806017155281428 0.8816784017626056 1.0000   
         C         C         1.0       0.006559927161888801          0.5375969394550854 0.32669600147836453          1.0000   
         C         C         1.0       0.0029991448882125127         0.5715252928167517 0.3141608467249949 1.0000   
         H         H         1.0       0.9888156782601412  0.5341971003511364  0.352953235566302  1.0000   
         H         H         1.0       0.030664911146262686          0.5349186952448692 0.3406178271965511 1.0000   
         H         H         1.0       0.01116649125473912           0.5875736966414157 0.33997807048449724          1.0000   
         H         H         1.0       0.02202570691611805           0.5787851049465372 0.29565935537260657          1.0000   
         C         C         1.0       0.6468999077992178  0.33369693526625366           0.9474789172523443 1.0000   
         C         C         1.0       0.6348344410240245  0.3022337344529883  0.9266266675651276 1.0000   
         H         H         1.0       0.6265471538889983  0.34745766343127804           0.9608805940564867 1.0000   
         H         H         1.0       0.6556283384703487  0.34958927355856    0.9243734887409569 1.0000   
         H         H         1.0       0.629051509749184   0.30568425160919555           0.8927975466945797 1.0000   
         H         H         1.0       0.6545701087278063  0.28528898297745414           0.9213982007883658 1.0000   
         C         C         1.0       0.874008723397722   0.23771806878224147           0.9768842747104173 1.0000   
         C         C         1.0       0.8580343901639091  0.2251587482021452  0.016374473887148966         1.0000   
         H         H         1.0       0.8868170460281185  0.2175306908661688  0.9638930216228272 1.0000   
         H         H         1.0       0.8939490774274192  0.2551706926092609  0.9859477677041287 1.0000   
         H         H         1.0       0.8530491960921281  0.19902606853642735           0.013244428640745598         1.0000   
         H         H         1.0       0.876600999807437   0.2264203966099794  0.041262696016393985         1.0000   
         C         C         1.0       0.8143685900354959  0.5252515796957447  0.13285234029593385          1.0000   
         C         C         1.0       0.842558487943909   0.5252038595369581  0.10112536774846914          1.0000   
         H         H         1.0       0.8197226086435753  0.5416144324750481  0.16028832978710383          1.0000   
         H         H         1.0       0.7917057390737583  0.5351307191553312  0.11608457312754639          1.0000   
         H         H         1.0       0.8439825964287587  0.5461507467457541  0.08443932048953684          1.0000   
         H         H         1.0       0.834260829118516   0.5111694310190628  0.07335721975822151          1.0000   
         C         C         1.0       0.6971861855618525  0.15173061459716403           0.14182402452995846          1.0000   
         C         C         1.0       0.70098466501443    0.18312329303105127           0.166980834054423  1.0000   
         H         H         1.0       0.6938654592039737  0.13405758490860453           0.16406581734043163          1.0000   
         H         H         1.0       0.6733521097839545  0.15134391737774952           0.12490925727678892          1.0000   
         H         H         1.0       0.7200892756350835  0.17779529867838617           0.19265519755700344          1.0000   
         H         H         1.0       0.6786677068500342  0.18773334845223347           0.18523367918980438          1.0000   
         C         C         1.0       0.7777062914416151  0.41747799410844555           0.3642320055915676 1.0000   
         C         C         1.0       0.7489181734609195  0.43757348096257787           0.3768549743171329 1.0000   
         H         H         1.0       0.7752423181418162  0.39625836316393726           0.3806470399532094 1.0000   
         H         H         1.0       0.7986538872713883  0.43018195262236836           0.37918780847073735          1.0000   
         H         H         1.0       0.7261622194383064  0.42632965540096257           0.3667589639937221 1.0000   
         H         H         1.0       0.74852864111668    0.43835928459879986           0.4094223269519263 1.0000   
         C         C         1.0       0.17213100593163033           0.3629534490394979 0.2637212502733865 1.0000   
         C         C         1.0       0.19359770225162354           0.3528252795788773 0.30125587612198795          1.0000   
         H         H         1.0       0.18440040372121197           0.3680400015370336 0.23436452303062905          1.0000   
         H         H         1.0       0.16250616138355056           0.3872132881152032 0.27043020841116927          1.0000   
         H         H         1.0       0.175433224112997   0.3480340845864616  0.32524447322666183          1.0000   
         H         H         1.0       0.20741924084068947           0.3734974783250172 0.3094675403763362 1.0000   
         C         C         1.0       0.12523825515762743           0.20688096370398834          0.42271644643863415          1.0000   
         C         C         1.0       0.11477165777257636           0.18691019410091167          0.38417713082918553          1.0000   
         H         H         1.0       0.14802141082941378           0.19537213662644431          0.433358762847177  1.0000   
         H         H         1.0       0.13430631399624482           0.23060606117148474          0.413637254582543  1.0000   
         H         H         1.0       0.09359015673835924           0.17139530603439262          0.3925068025884107 1.0000   
         H         H         1.0       0.13508814303885908           0.17075092290862326          0.37908120918966354          1.0000   
         C         C         1.0       0.9853255422349054  0.6852275867381803  0.3782771838502462 1.0000   
         C         C         1.0       0.953113356691906   0.7054417984322211  0.37955713207410796          1.0000   
         H         H         1.0       0.9804578266088811  0.6599388956269922  0.38102115792084434          1.0000   
         H         H         1.0       0.00019953965096686233        0.6916541959011636 0.40601630428200763          1.0000   
         H         H         1.0       0.9532774126369329  0.7306121737583596  0.3727536284697699 1.0000   
         H         H         1.0       0.9447413118119848  0.7048047148313763  0.41298112453807007          1.0000   
         C         C         1.0       0.1493920572113543  0.601729222883546   0.15436494369851816          1.0000   
         C         C         1.0       0.13646086185747186           0.6224788391231297 0.19014498881911868          1.0000   
         H         H         1.0       0.17277869962359227           0.5926664658068724 0.16648324675086998          1.0000   
         H         H         1.0       0.15569852595239952           0.6186361247632644 0.12942533813199875          1.0000   
         H         H         1.0       0.15527017137061216           0.6359390401592585 0.20449383553359568          1.0000   
         H         H         1.0       0.12890753535056731           0.6055407907282835 0.21490004441655342          1.0000   
         C         C         1.0       0.9552466915776596  0.3335352327360955  0.2923456834291258 1.0000   
         C         C         1.0       0.9316205032518162  0.3499958025863087  0.2610158049049059 1.0000   
         H         H         1.0       0.9383255570592535  0.3204973217147451  0.31240288004674094          1.0000   
         H         H         1.0       0.9648567442676415  0.35330753280315674           0.3122439465324877 1.0000   
         H         H         1.0       0.9089354567615495  0.35601013437867424           0.2802632530353874 1.0000   
         H         H         1.0       0.9208723100507282  0.33107613875871933           0.24182611630568351          1.0000   
         C         C         1.0       0.9214254458845188  0.3120955272994808  0.09837775285022299          1.0000   
         C         C         1.0       0.9224230871236089  0.32661789149000336           0.14329451655035938          1.0000   
         H         H         1.0       0.8988880958295704  0.30231988750999933           0.08722341303859582          1.0000   
         H         H         1.0       0.9262546832687343  0.32903172338129033           0.07480747223460948          1.0000   
         H         H         1.0       0.9417824378411577  0.34437620454611495           0.1458782568484788 1.0000   
         H         H         1.0       0.9269675040348648  0.3099694814248359  0.1663813800784453 1.0000   
         C         C         1.0       0.10324850570795552           0.8924197454505689 0.16506430989308365          1.0000   
         C         C         1.0       0.08977228767220602           0.8984334144965754 0.20324696770000164          1.0000   
         C         C         1.0       0.06515864462899734           0.8816012768419668 0.21731794190002277          1.0000   
         C         C         1.0       0.052145135808981946          0.8571267113469688 0.19349624040857022          1.0000   
         C         C         1.0       0.061891066548857454          0.853279890994396  0.1544944767804501 1.0000   
         C         C         1.0       0.08770988704359595           0.8707419884946117 0.1414562393320209 1.0000   
         H         H         1.0       0.09864227346744614           0.9187442620405378 0.22267635453010626          1.0000   
         H         H         1.0       0.05549957078427625           0.8886134174543713 0.24818987032399056          1.0000   
         H         H         1.0       0.052876900493823875          0.8346334608701838 0.13584679225878396          1.0000   
         H         H         1.0       0.09864921595504805           0.864819318005059  0.11278785735462238          1.0000   
         C         C         1.0       0.9878426162944516  0.8890618546785262  0.21863560056599746          1.0000   
         C         C         1.0       0.9944103509246256  0.8628324965274666  0.19347425388504358          1.0000   
         C         C         1.0       0.9759801310353557  0.8593025032999048  0.15698371719523113          1.0000   
         C         C         1.0       0.9513362933086792  0.8803687181720643  0.1460530757938414 1.0000   
         C         C         1.0       0.9456110775289915  0.9057116642244529  0.17112449429548363          1.0000   
         C         C         1.0       0.9641719708144691  0.9100889687218324  0.20740114935006854          1.0000   
         C         C         1.0       0.02169252887595996           0.8392525450458092 0.2077289289320315 1.0000   
         C         C         1.0       0.021156584437511894          0.8326762255125572 0.2566265291326278 1.0000   
         C         C         1.0       0.9922325786373615  0.8312864342590177  0.277475908769042  1.0000   
         C         C         1.0       0.9933699661702169  0.8179753842229306  0.3152339739438154 1.0000   
         C         C         1.0       0.021647867804350795          0.8107030418118688 0.3370946494927765 1.0000   
         C         C         1.0       0.05066638355011155           0.8131846904807497 0.3169483831478373 1.0000   
         C         C         1.0       0.04988821789238185           0.8268853944154422 0.2783270562001471 1.0000   
         C         C         1.0       0.04439184280766195           0.7856833196609233 0.18699700726516238          1.0000   
         C         C         1.0       0.04479463604368261           0.7535568626171968 0.18335560062088135          1.0000   
         C         C         1.0       0.016757337693200425          0.7381035451896156 0.19475995914238473          1.0000   
         C         C         1.0       0.9884045934046363  0.755659002097528   0.19510875606461978          1.0000   
         C         C         1.0       0.9886462582091569  0.7873464643844352  0.19391657085000266          1.0000   
         C         C         1.0       0.017621062746070892          0.8023624394384063 0.1960017948356668 1.0000   
         C         C         1.0       0.017310248601944522          0.701331725265237  0.20633933809332253          1.0000   
         C         C         1.0       0.9500628807096254  0.6553190895797639  0.12096962552792022          1.0000   
         C         C         1.0       0.9737920552126834  0.6734361861914758  0.10837365492265305          1.0000   
         C         C         1.0       0.992688465595799   0.6904619782029094  0.13475723141609858          1.0000   
         C         C         1.0       0.9888695554739644  0.687823853155856   0.17566167624521362          1.0000   
         C         C         1.0       0.9626116958751314  0.6697900837965598  0.1886818996358532 1.0000   
         C         C         1.0       0.9426943967857315  0.6532976990803352  0.16111556661014367          1.0000   
         C         C         1.0       0.01288538141992901           0.6994058574114144 0.2549679272821329 1.0000   
         C         C         1.0       0.013155497991188758          0.7241422003874581 0.2823466877336453 1.0000   
         C         C         1.0       0.012470279283423258          0.1225861756837483 0.10082374126049909          1.0000   
         C         C         1.0       0.9834753043344193  0.1168237175663287  0.07779797078850947          1.0000   
         C         C         1.0       0.9690304385084805  0.14115194628085526           0.05552023385778737          1.0000   
         C         C         1.0       0.9828872567241117  0.17117238818885272           0.057905750808292966         1.0000   
         C         C         1.0       0.05058658262359961           0.6525469750243706 0.17714674406647868          1.0000   
         C         C         1.0       0.057605286398109135          0.21939275512245504          0.9789991373323791 1.0000   
         C         C         1.0       0.08834872720057119           0.21048194894996075          0.9829030632914845 1.0000   
         C         C         1.0       0.10211958185967607           0.20434898910965926          0.02190943259924305          1.0000   
         C         C         1.0       0.08024292102024555           0.6898989698552026 0.21837533522415212          1.0000   
         C         C         1.0       0.0509576632813733  0.68116993923875    0.19946378522748526          1.0000   
         H         H         1.0       0.004464261646127898          0.8930222001835985 0.24212356363601756          1.0000   
         H         H         1.0       0.9814856791857525  0.8392459029757121  0.13824269421290086          1.0000   
         H         H         1.0       0.9359298389462173  0.8745848912998149  0.11820842338976867          1.0000   
         H         H         1.0       0.9573741158909987  0.9287862289735156  0.22458014225213224          1.0000   
         H         H         1.0       0.9690127613073329  0.8410047464507694  0.26530920455439994          1.0000   
         H         H         1.0       0.9716269474152711  0.8194345316152923  0.3346037140617248 1.0000   
         H         H         1.0       0.07529059423873918           0.8076983097552018 0.3311397123873891 1.0000   
         H         H         1.0       0.0710818867732479  0.8259265682901934  0.2609483029069638 1.0000   
         H         H         1.0       0.06654031919622394           0.7972541857695278 0.18357071665919647          1.0000   
         H         H         1.0       0.06629917921151596           0.7414007002996393 0.17943207589467333          1.0000   
         H         H         1.0       0.9667858469177283  0.7441880534071112  0.20113997295182864          1.0000   
         H         H         1.0       0.9641473375486678  0.7970724542146428  0.19737497650763985          1.0000   
         H         H         1.0       0.977905698138536   0.6723176273392979  0.07644131413997735          1.0000   
         H         H         1.0       0.014737265492963392          0.702375358031294  0.12287584788254535          1.0000   
         H         H         1.0       0.9579867464701348  0.6656989765268124  0.21966812796702495          1.0000   
         H         H         1.0       0.9202072014259568  0.6415540690418239  0.16996011595621596          1.0000   
         H         H         1.0       0.01875391471473531           0.7475385645148346 0.27216378011635883          1.0000   
         H         H         1.0       0.02293496483991664           0.10556057586488121          0.12033319731517977          1.0000   
         H         H         1.0       0.9494007956108443  0.13556133493948486           0.034954964857127895         1.0000   
         H         H         1.0       0.003860810956717753          0.6481951737380861 0.2527295601358426 1.0000   
         H         H         1.0       0.027636448875899777          0.6399808201376209 0.16565908236076363          1.0000   
         H         H         1.0       0.04575524119313967           0.22772940785347173          0.949766228258228  1.0000   
         H         H         1.0       0.12704332916096606           0.19444273978056192          0.02397748894618834          1.0000   
         H         H         1.0       0.07877983627216345           0.7119462526801016 0.23609371916160563          1.0000   
         C         C         1.0       0.6772974100079618  0.7625725150923436  0.9475381721558616 1.0000   
         C         C         1.0       0.7010267224919381  0.7842409657682287  0.9587543362371523 1.0000   
         C         C         1.0       0.7183854127078149  0.7837121971511691  0.9941753530225897 1.0000   
         C         C         1.0       0.7110870961747193  0.7619879071276698  0.023174639956863974         1.0000   
         C         C         1.0       0.6848632127788612  0.742991140546369   0.015347754071163955         1.0000   
         C         C         1.0       0.6697835102800054  0.7422069446316666  0.975836574883571  1.0000   
         H         H         1.0       0.7056029091147512  0.8000120512547789  0.934946216161304  1.0000   
         H         H         1.0       0.7374821658273516  0.8006401142624139  0.00040382523778825785       1.0000   
         H         H         1.0       0.6739882404082181  0.7275030137962073  0.03609125794565826          1.0000   
         H         H         1.0       0.6546468836068503  0.7235101116501295  0.9680372818310464 1.0000   
         C         C         1.0       0.7371657329703146  0.7181412063805201  0.12533018319930678          1.0000   
         C         C         1.0       0.7327970140690248  0.7244702889335877  0.08382983603099814          1.0000   
         C         C         1.0       0.734776016813334   0.6995473289642731  0.05808424431808623          1.0000   
         C         C         1.0       0.7422769683264667  0.6695981423826144  0.0710869807885266 1.0000   
         C         C         1.0       0.7491753444670348  0.6643727713934102  0.11155862036932374          1.0000   
         C         C         1.0       0.7453027263626607  0.6882508631411126  0.13927673723972278          1.0000   
         C         C         1.0       0.7295275704097633  0.7589085044597593  0.06591784887726138          1.0000   
         C         C         1.0       0.709794640713136   0.7839604757317243  0.09435049872838186          1.0000   
         C         C         1.0       0.7173298748037102  0.8161171038522147  0.0957893653026003 1.0000   
         C         C         1.0       0.7017554595530838  0.8367185868198151  0.12251332090133915          1.0000   
         C         C         1.0       0.6839805290820523  0.8255774424918193  0.15432748280781006          1.0000   
         C         C         1.0       0.6756630746135707  0.7951315200295597  0.15201995931888734          1.0000   
         C         C         1.0       0.6883187536749851  0.7739121920589029  0.12329200777435045          1.0000   
         C         C         1.0       0.7847550052746672  0.7586127586990987  0.029441247797323156         1.0000   
         C         C         1.0       0.8183336177171124  0.7636640897616274  0.0285855900139107 1.0000   
         C         C         1.0       0.8349248544297908  0.7760651253432621  0.06280650030030088          1.0000   
         C         C         1.0       0.8168948737410512  0.7805859939577467  0.09668640995867284          1.0000   
         C         C         1.0       0.7839474476183713  0.774310269134049   0.09816015965768798          1.0000   
         C         C         1.0       0.7668053634680302  0.7657831622283461  0.06362264941142226          1.0000   
         C         C         1.0       0.8730556260615511  0.7793640294827515  0.06324321831616797          1.0000   
         C         C         1.0       0.8917694220033868  0.677688252710145   0.07725479009881807          1.0000   
         C         C         1.0       0.8963320994743538  0.6910087176197101  0.04004356147366184          1.0000   
         C         C         1.0       0.8932613423205665  0.72369246160703    0.037905961344325334         1.0000   
         C         C         1.0       0.8819522330849311  0.7429310242249973  0.06855465617157108          1.0000   
         C         C         1.0       0.8774346162330878  0.7285557003656027  0.10489832449577885          1.0000   
         C         C         1.0       0.8837427059627619  0.6960181810605962  0.1100298921375773 1.0000   
         C         C         1.0       0.8825005008407267  0.805865592260228   0.0973187100390267 1.0000   
         C         C         1.0       0.8710549106653418  0.8361407308504749  0.08868607184042765          1.0000   
         C         C         1.0       0.8654307747645787  0.8584222916492089  0.1187093359053153 1.0000   
         C         C         1.0       0.8723959558386961  0.851983542508273   0.15862588105596212          1.0000   
         C         C         1.0       0.8874502697173192  0.8239038534419593  0.1700294493568939 1.0000   
         C         C         1.0       0.8925127573011017  0.8002352695977508  0.13858577822865414          1.0000   
         C         C         1.0       0.9237760017638781  0.7905440443732021  0.02361814661845374          1.0000   
         C         C         1.0       0.9423407237249481  0.8033239736092334  0.9931512795959547 1.0000   
         C         C         1.0       0.9259415025793362  0.8196214678359082  0.9633922022415221 1.0000   
         C         C         1.0       0.8923708271627617  0.8245532384492921  0.9635034458178978 1.0000   
         C         C         1.0       0.8747702122865716  0.8099500120952914  0.9916884224569662 1.0000   
         C         C         1.0       0.8899432385274672  0.7930365021387618  0.024327488834636313         1.0000   
         H         H         1.0       0.7378698195455038  0.7376584950989825  0.14812928590322216          1.0000   
         H         H         1.0       0.7366632419820351  0.704514128088027   0.025978166209541964         1.0000   
         H         H         1.0       0.7465862758000914  0.6508031557810372  0.04839289345004527          1.0000   
         H         H         1.0       0.7538350293619822  0.6856547953153881  0.1706687470707149 1.0000   
         H         H         1.0       0.7325616146293659  0.8269703311838058  0.0720246293885054 1.0000   
         H         H         1.0       0.7087770712365015  0.8604034278914778  0.1211277980618568 1.0000   
         H         H         1.0       0.6611131831627627  0.7873137173647561  0.17586867657064276          1.0000   
         H         H         1.0       0.6778063458429635  0.7502774823813325  0.12372655429037294          1.0000   
         H         H         1.0       0.7743434363897503  0.747459685483987   0.00047873771900608375       1.0000   
         H         H         1.0       0.8332335184496191  0.7598871714598495  0.003485716877190681         1.0000   
         H         H         1.0       0.8268765721639834  0.7879711671552753  0.12593783593236396          1.0000   
         H         H         1.0       0.7717869230382205  0.7784864550998368  0.1256726124016161 1.0000   
         H         H         1.0       0.8996357725137002  0.6764706715215606  0.012835079170240071         1.0000   
         H         H         1.0       0.8922901727062788  0.7319666522052685  0.006571218440031279         1.0000   
         H         H         1.0       0.8672104451799166  0.7415310482809159  0.13123590711384467          1.0000   
         H         H         1.0       0.8803401143876576  0.6846274074937624  0.1392359361459969 1.0000   
         H         H         1.0       0.8599915126943519  0.8423950687946057  0.05999885911508951          1.0000   
         H         H         1.0       0.8552370393795327  0.8811659363788729  0.11052632515860106          1.0000   
         H         H         1.0       0.8926469157145875  0.8187468341472144  0.20241705019497347          1.0000   
         H         H         1.0       0.9047133193597194  0.7788356834634365  0.1437765585563256 1.0000   
         H         H         1.0       0.937906849449211   0.7801727271064153  0.05051389833765341          1.0000   
         H         H         1.0       0.9680430988455752  0.8027323017820787  0.9930860991261572 1.0000   
         H         H         1.0       0.8811777954696607  0.8394557049526427  0.9414853099997944 1.0000   
         H         H         1.0       0.8506402740110505  0.8154254929376347  0.9926728322567555 1.0000   
         C         C         1.0       0.1484471691289162  0.9874763007468601  0.9257471341916469 1.0000   
         C         C         1.0       0.14457338222250415           0.984645618277181  0.966144270330307  1.0000   
         C         C         1.0       0.12399324336461026           0.005080216891090394         0.9854973832962823 1.0000   
         C         C         1.0       0.10542694310851353           0.02806913829794877          0.9630487873354441 1.0000   
         C         C         1.0       0.11017386923292016           0.029960217039749715         0.9221086878668237 1.0000   
         C         C         1.0       0.1306980302272136  0.00866113714170269           0.9037540097917017 1.0000   
         H         H         1.0       0.16054912222317563           0.9704978652936482 0.9859095567258047 1.0000   
         H         H         1.0       0.12804198404488454           0.004603937256661084         0.01733079912420643          1.0000   
         H         H         1.0       0.09698694822058074           0.04698142961652385          0.9008658024751058 1.0000   
         H         H         1.0       0.13426141608830244           0.01303844615919858          0.8724872686372648 1.0000   
         C         C         1.0       0.11935193240105368           0.09832097757339331          0.9704653557049578 1.0000   
         C         C         1.0       0.08722039614176103           0.08629913927261113          0.9708118628313535 1.0000   
         C         C         1.0       0.06422635903405527           0.10648736699345318          0.9572949400618194 1.0000   
         C         C         1.0       0.07118968731341813           0.13524541721582284          0.9410427710521184 1.0000   
         C         C         1.0       0.10230955050511148           0.14642776874436136          0.941078239680142  1.0000   
         C         C         1.0       0.12736114476302385           0.12774076724742067          0.9543511021809058 1.0000   
         C         C         1.0       0.0807487834518581  0.050631373399711466         0.9859376357201258 1.0000   
         C         C         1.0       0.08055595667821014           0.04823571561094786          0.03427447177931753          1.0000   
         C         C         1.0       0.09235611907564256           0.07185692573768332          0.06252710015651752          1.0000   
         C         C         1.0       0.0913341830314931  0.06732544517494543           0.1037048741465505 1.0000   
         C         C         1.0       0.08054652492634062           0.03969825912016378          0.11954979380948538          1.0000   
         C         C         1.0       0.06612707829171383           0.018740059304632073         0.09392364568810185          1.0000   
         C         C         1.0       0.07036270920792553           0.02129284964542255          0.0519733931705364 1.0000   
         C         C         1.0       0.03706981002310372           0.014774591115649605         0.9448560696384776 1.0000   
         C         C         1.0       0.005844684076211193          0.0057390892100352975        0.9366467912066082 1.0000   
         C         C         1.0       0.9807450241979359  0.014617579592653529         0.9617165764579976 1.0000   
         C         C         1.0       0.9871403232141805  0.04113808206407654           0.9881233354625617 1.0000   
         C         C         1.0       0.016319567846470928          0.05587633061566799          0.9885340421107334 1.0000   
         C         C         1.0       0.04329667058307374           0.040540592319633584         0.971586487620898  1.0000   
         C         C         1.0       0.9482280915626374  0.9945799407122639  0.9698195668633879 1.0000   
         C         C         1.0       0.8772027313251538  0.05416144035200654           0.908585763156565  1.0000   
         C         C         1.0       0.8934025979661345  0.03148369286272534           0.8884003138289595 1.0000   
         C         C         1.0       0.9167094556398342  0.014171293062579027         0.9083008908845602 1.0000   
         C         C         1.0       0.9223639758485349  0.016424382290354034         0.9493287141409733 1.0000   
         C         C         1.0       0.9075606439920905  0.04142927555071929           0.9681939608058667 1.0000   
         C         C         1.0       0.8861110085271648  0.06148786639116244           0.9483275730037496 1.0000   
         C         C         1.0       0.9422983669025534  0.9879927027253925  0.018338739087150557         1.0000   
         C         C         1.0       0.9128487870095277  0.9871194878404377  0.03699995845340576          1.0000   
         C         C         1.0       0.9115737526951022  0.9788983922201739  0.07663335654386705          1.0000   
         C         C         1.0       0.9395405195858414  0.970949891643697   0.0993707533485515 1.0000   
         C         C         1.0       0.9684810519095438  0.9721370614472142  0.08247033998359775          1.0000   
         C         C         1.0       0.9702606844277103  0.9800862004503236  0.042817871485664405         1.0000   
         C         C         1.0       0.9161518157249925  0.9468674712550116  0.9397298640854329 1.0000   
         C         C         1.0       0.9142510887786403  0.9177502180897947  0.922411192017621  1.0000   
         C         C         1.0       0.9396766686346424  0.8979082483649724  0.9229205390101431 1.0000   
         C         C         1.0       0.9692927809858242  0.9085458261008649  0.9397672953044183 1.0000   
         C         C         1.0       0.9722416986698631  0.9393990142394973  0.9522382494403211 1.0000   
         C         C         1.0       0.9466543088937307  0.9604718828666006  0.9515754511867492 1.0000   
         H         H         1.0       0.13910712069520326           0.08381785576373124          0.9822318015334688 1.0000   
         H         H         1.0       0.0382341918621254  0.10540864580479226           0.9576427379988551 1.0000   
         H         H         1.0       0.05270364992394816           0.15321306911886734          0.9331644086329007 1.0000   
         H         H         1.0       0.1512597494425052  0.13672361339089578           0.9525722954254308 1.0000   
         H         H         1.0       0.09979725862982147           0.09423243836348849          0.051172939529917416         1.0000   
         H         H         1.0       0.10094860015820895           0.0857512008132455 0.12475767879694466          1.0000   
         H         H         1.0       0.052723283715145015          0.9976491611586479 0.10452603878365618          1.0000   
         H         H         1.0       0.060347410783091915          0.00332279601172103          0.03298173444407393          1.0000   
         H         H         1.0       0.05388360070796594           0.002626177814249342         0.9245174683998449 1.0000   
         H         H         1.0       0.003900068956857794          0.9857506942623234 0.9174678430297386 1.0000   
         H         H         1.0       0.9675269724248604  0.054617493298958486         0.0007473873413694765        1.0000   
         H         H         1.0       0.017244737759593898          0.07595366553902405          0.009764999384145101         1.0000   
         H         H         1.0       0.8887499770896099  0.030337283424066053         0.8554651407004602 1.0000   
         H         H         1.0       0.9281539366745044  0.9962711087275871  0.8877425707377449 1.0000   
         H         H         1.0       0.9085036922358494  0.04645332362857735           0.00020999966368639988       1.0000   
         H         H         1.0       0.874375061731297   0.07863879436713095           0.9686111413157624 1.0000   
         H         H         1.0       0.8889299785298846  0.9912256072617687  0.024006176413519764         1.0000   
         H         H         1.0       0.8889670267256117  0.974809243753978   0.09015717843478943          1.0000   
         H         H         1.0       0.9922245736248148  0.964775964389277   0.09724263530348876          1.0000   
         H         H         1.0       0.9956761713089773  0.9821344580572521  0.0333267211257644 1.0000   
         H         H         1.0       0.895044217345472   0.9616256959846314  0.9426916357936209 1.0000   
         H         H         1.0       0.8907371948155298  0.9080482937241509  0.9123357869227969 1.0000   
         H         H         1.0       0.9908081024491385  0.8928225588102333  0.9409836292352626 1.0000   
         H         H         1.0       0.9953315603279591  0.9450805616146754  0.9671542164881805 1.0000   
         C         C         1.0       0.6442798245303988  0.9721580061725614  0.10522149890741184          1.0000   
         C         C         1.0       0.6546265857532118  0.9976195616787301  0.1294933061959714 1.0000   
         C         C         1.0       0.6832472560771383  0.9976257171444335  0.15078832140826617          1.0000   
         C         C         1.0       0.7046983549405937  0.9733073014819891  0.14716109477237874          1.0000   
         C         C         1.0       0.695810165855829   0.9478161356186535  0.12206116764293218          1.0000   
         C         C         1.0       0.6660408399535406  0.9478589466043688  0.103425188742281  1.0000   
         H         H         1.0       0.6409336978324593  0.019765902145141068         0.13214572056838864          1.0000   
         H         H         1.0       0.6921621377237186  0.02107844546028481           0.1610484318744221 1.0000   
         H         H         1.0       0.7125686819267937  0.9298995663569906  0.1133741850972616 1.0000   
         H         H         1.0       0.6585207904589384  0.926900204220072   0.08639220911248245          1.0000   
         C         C         1.0       0.749209340844967   0.9208647022214886  0.18724315089259408          1.0000   
         C         C         1.0       0.7607712232271654  0.9456814441913648  0.16442020185822837          1.0000   
         C         C         1.0       0.7909902615690396  0.9446160720513272  0.1500234977619752 1.0000   
         C         C         1.0       0.8114443765728392  0.9200280899423974  0.16069074109045953          1.0000   
         C         C         1.0       0.8001785255321912  0.8952213672052989  0.18438702331862217          1.0000   
         C         C         1.0       0.7692076563177622  0.8949493616556388  0.19683343591502556          1.0000   
         C         C         1.0       0.7404674046909058  0.978659638592155   0.16579149372821084          1.0000   
         C         C         1.0       0.740916966627712   0.9869440082557066  0.21444420161233316          1.0000   
         C         C         1.0       0.7694905135392073  0.985685529167233   0.2380614142785162 1.0000   
         C         C         1.0       0.7698071787366498  0.9958634722382391  0.27859673338463287          1.0000   
         C         C         1.0       0.7428807455983051  0.0076135604461176065        0.29719714146306814          1.0000   
         C         C         1.0       0.7143984254153833  0.007568694330693404         0.27445561461672546          1.0000   
         C         C         1.0       0.7141509368332281  0.9957657084165022  0.2365348897210521 1.0000   
         C         C         1.0       0.7502530244072954  0.010004440067977294         0.10031558532464735          1.0000   
         C         C         1.0       0.7621964081062895  0.034059163974899054         0.07853528597545799          1.0000   
         C         C         1.0       0.7869199275965412  0.052994067506794584         0.09375229346898428          1.0000   
         C         C         1.0       0.7945434222208896  0.0509606812063621  0.1362180243703531 1.0000   
         C         C         1.0       0.7807963099974485  0.02824880300967436           0.1590171559746699 1.0000   
         C         C         1.0       0.757652708467243   0.007768229111649649         0.14225691216851524          1.0000   
         C         C         1.0       0.801076427119188   0.08106276932409062           0.06900760243990867          1.0000   
         C         C         1.0       0.8064741237120467  0.06635191653728523           0.9387928945628478 1.0000   
         C         C         1.0       0.805020549050614   0.0965457026625749  0.9573120218677841 1.0000   
         C         C         1.0       0.8048546770100659  0.10064148348694113           0.9984612677370924 1.0000   
         C         C         1.0       0.8009537235537296  0.07496774398945028           0.023326665414232558         1.0000   
         C         C         1.0       0.8038217659912865  0.044540460145413574         0.005135070814378251         1.0000   
         C         C         1.0       0.8044532389302722  0.040071929790929106         0.9623466137538952 1.0000   
         C         C         1.0       0.8400666045190099  0.08517367870464976           0.07917853177112666          1.0000   
         C         C         1.0       0.8598229326325324  0.0586771292849384  0.08446297083745535          1.0000   
         C         C         1.0       0.891394017414649   0.06248812839965456           0.09520643822077068          1.0000   
         C         C         1.0       0.9054297418644339  0.09093610876660674           0.09917517997995451          1.0000   
         C         C         1.0       0.8875757692255599  0.11658617398154347           0.08894910512964582          1.0000   
         C         C         1.0       0.8542595481962738  0.11513892951958438           0.08020990286813044          1.0000   
         C         C         1.0       0.7825320170152186  0.12553901879933815           0.12360895296157492          1.0000   
         C         C         1.0       0.8302416671532167  0.6619842844199461  0.18361436286096042          1.0000   
         C         C         1.0       0.8277790842213778  0.6368162924940439  0.15583937674139808          1.0000   
         C         C         1.0       0.7241186633827481  0.13028036729145787           0.08158335462402944          1.0000   
         C         C         1.0       0.7490042903824624  0.1159983510832816  0.06258781178801232          1.0000   
         C         C         1.0       0.7786692827637274  0.11007057833142198           0.08436330962501026          1.0000   
         H         H         1.0       0.7237395238995338  0.9212550328891868  0.19843905015143995          1.0000   
         H         H         1.0       0.8012111028681962  0.9652735597944954  0.13459736899974667          1.0000   
         H         H         1.0       0.8358190778521154  0.9215536611189571  0.15039091440374422          1.0000   
         H         H         1.0       0.7577869683043291  0.8755058661765545  0.21353901105527226          1.0000   
         H         H         1.0       0.7905860937580907  0.9718100543661679  0.23139785089845644          1.0000   
         H         H         1.0       0.7909133826092571  0.9931073465159975  0.2993518558027424 1.0000   
         H         H         1.0       0.6927669646680391  0.012603282277291683         0.2886884661117164 1.0000   
         H         H         1.0       0.6902011638104683  0.9950578474113054  0.22331071701944885          1.0000   
         H         H         1.0       0.7344203968818923  0.992815068625263   0.08389716835001848          1.0000   
         H         H         1.0       0.7514664184382452  0.0364099174275736  0.04828771896644923          1.0000   
         H         H         1.0       0.8147089487598416  0.06403083007180044           0.15090013335279517          1.0000   
         H         H         1.0       0.7875001824593197  0.02882439614838539           0.19180012090189116          1.0000   
         H         H         1.0       0.8128554972478944  0.11750719245804553           0.9427331297024603 1.0000   
         H         H         1.0       0.8071686423133342  0.12406035857647213           0.011998803347945453         1.0000   
         H         H         1.0       0.8030076735372738  0.023654031608112636         0.023789307390514432         1.0000   
         H         H         1.0       0.805990115733508   0.014702769156699436         0.9500259079328365 1.0000   
         H         H         1.0       0.8503168121841707  0.035001063332374516         0.08111601139489144          1.0000   
         H         H         1.0       0.9066174847374182  0.04240639902745591           0.10326946720096153          1.0000   
         H         H         1.0       0.9386733929270235  0.7136640630935053  0.29761894916949994          1.0000   
         H         H         1.0       0.8386015590623555  0.1344021278891896  0.06912414261263922          1.0000   
         H         H         1.0       0.8038224288563859  0.11714511035676978           0.1424196786544602 1.0000   
         H         H         1.0       0.817441218496796   0.6836060185393799  0.1789472795141912 1.0000   
         H         H         1.0       0.7008506624549328  0.13127243805372957           0.06332555831504671          1.0000   
         H         H         1.0       0.7458073525929082  0.10735076312904002           0.029526035382336113         1.0000   
         C         C         1.0       0.06986760284965321           0.6201952264375037 0.5493904272467892 1.0000   
         C         C         1.0       0.06406094288788067           0.6327050374907428 0.5109983718283319 1.0000   
         C         C         1.0       0.04079624107814639           0.6568859253014452 0.5069416619132122 1.0000   
         C         C         1.0       0.02510065151191765           0.6684447788130599 0.5395899928098762 1.0000   
         C         C         1.0       0.036104573898043446          0.6582350194093363 0.5778108926217034 1.0000   
         C         C         1.0       0.05667569670996042           0.6333938484316427 0.5835421037029529 1.0000   
         H         H         1.0       0.07605158646202415           0.621498808033308  0.483770254972829  1.0000   
         H         H         1.0       0.0365887660507227  0.666370872957042   0.47536552767155743          1.0000   
         H         H         1.0       0.027149413617612472          0.666896988942831  0.607531721541828  1.0000   
         H         H         1.0       0.0633910751086344  0.6225218739248172  0.6134201711656845 1.0000   
         C         C         1.0       0.9567398208752282  0.6556616949216927  0.566970665035792  1.0000   
         C         C         1.0       0.9658516272945492  0.6694447490955712  0.5311466375620804 1.0000   
         C         C         1.0       0.954469502517271   0.6559923417175066  0.4942136670970798 1.0000   
         C         C         1.0       0.9400393696614449  0.6258925270138744  0.49371502306025455          1.0000   
         C         C         1.0       0.9385870598249513  0.6101846441782605  0.5309455038886108 1.0000   
         C         C         1.0       0.946474182684606   0.6255713002337769  0.5673509800989456 1.0000   
         C         C         1.0       0.9954478212771201  0.6936651517713878  0.5360978090662679 1.0000   
         C         C         1.0       0.9967215002422365  0.7189627408764325  0.49973655961414915          1.0000   
         C         C         1.0       0.9679966096976568  0.7333494325615826  0.48546969583542826          1.0000   
         C         C         1.0       0.9672450920214429  0.7559900609765964  0.4568970583044817 1.0000   
         C         C         1.0       0.9956921258947962  0.7643368396080378  0.43835715789690727          1.0000   
         C         C         1.0       0.024730266605348383          0.7537887049595916 0.454833424257572  1.0000   
         C         C         1.0       0.025074149158611725          0.7297649303138964 0.4824633895710519 1.0000   
         C         C         1.0       0.9666217420121265  0.7293367164482467  0.5911625431781019 1.0000   
         C         C         1.0       0.9662041080980412  0.7531687080167486  0.6216877438028094 1.0000   
         C         C         1.0       0.9925415254165589  0.7720384898033342  0.6268801630580354 1.0000   
         C         C         1.0       0.021635552861563934          0.7603474020467444 0.6132385393677856 1.0000   
         C         C         1.0       0.02135983194574287           0.7336297597188453 0.5883603526949858 1.0000   
         C         C         1.0       0.9938189245141907  0.7195805360443462  0.5728689517305489 1.0000   
         C         C         1.0       0.9875144114348302  0.8093215471808937  0.6386286679651253 1.0000   
         C         C         1.0       0.9477946166188023  0.8235877843699071  0.7578040508403189 1.0000   
         C         C         1.0       0.9601330536968935  0.7941574631295935  0.7501288278773464 1.0000   
         C         C         1.0       0.973758944028922   0.7886411027544044  0.7124860068317451 1.0000   
         C         C         1.0       0.9758735848250438  0.8132317849233202  0.6847365341790301 1.0000   
         C         C         1.0       0.9694154912876752  0.8436783441503504  0.6981111194060559 1.0000   
         C         C         1.0       0.9534745506624094  0.8479768361868876  0.7325039266378922 1.0000   
         C         C         1.0       0.9626593660586018  0.820036694579893   0.6040002393293373 1.0000   
         C         C         1.0       0.9697923727845524  0.8158823031942729  0.5632323424882559 1.0000   
         C         C         1.0       0.9478308534278794  0.8209227959721113  0.5324194760908837 1.0000   
         C         C         1.0       0.9163117361180605  0.827634278162309   0.5405541122810321 1.0000   
         C         C         1.0       0.9084223896696251  0.8314494967229482  0.5801095318132616 1.0000   
         C         C         1.0       0.9309780095588335  0.8297553057768111  0.6125380257701543 1.0000   
         C         C         1.0       0.02596899830590771           0.8531178961462876 0.6104288845341137 1.0000   
         C         C         1.0       0.05608980116069895           0.8658354652647009 0.6036902205113862 1.0000   
         C         C         1.0       0.08238788706402644           0.85412857255192   0.6270012490126132 1.0000   
         C         C         1.0       0.07712666516699462           0.8336931648611193 0.6579900940761645 1.0000   
         C         C         1.0       0.047285814266040394          0.8211737180075861 0.6631367549293561 1.0000   
         C         C         1.0       0.021073567826352724          0.8287599367466395 0.6370591741917946 1.0000   
         H         H         1.0       0.96698717953387    0.6657198338920334  0.5953501116460468 1.0000   
         H         H         1.0       0.9624187633251401  0.6659758003852219  0.46748299555182254          1.0000   
         H         H         1.0       0.935150075772622   0.6143938881644209  0.4664016900554984 1.0000   
         H         H         1.0       0.9453000558016077  0.615273630378218   0.595994908519888  1.0000   
         H         H         1.0       0.946177939902728   0.7243646745520117  0.498076865771007  1.0000   
         H         H         1.0       0.9447471600922509  0.7653306189628538  0.44489059376331935          1.0000   
         H         H         1.0       0.04730167111237238           0.7606324338151249 0.44442807389001454          1.0000   
         H         H         1.0       0.048787139202882024          0.7219135053064344 0.49015241438611806          1.0000   
         H         H         1.0       0.9433172391442705  0.7185790087201647  0.586547016016076  1.0000   
         H         H         1.0       0.9430196200561304  0.7588591605527164  0.6305353835475886 1.0000   
         H         H         1.0       0.04533673965639706           0.7706282900841277 0.6185536775168623 1.0000   
         H         H         1.0       0.04286148611190299           0.7266190765383906 0.5736343495816705 1.0000   
         H         H         1.0       0.957160008428614   0.7744251055308392  0.7692534672253256 1.0000   
         H         H         1.0       0.9842997148172513  0.7653407373359159  0.7046449052491116 1.0000   
         H         H         1.0       0.9761676191244355  0.8647852048227455  0.6792227838206855 1.0000   
         H         H         1.0       0.9410539217463907  0.8704172682690232  0.739947768253329  1.0000   
         H         H         1.0       0.9931883612735419  0.8073712425904391  0.5546105034790707 1.0000   
         H         H         1.0       0.9553646781951526  0.817539580048121   0.5004975937134285 1.0000   
         H         H         1.0       0.8837603977930721  0.8340009480247411  0.5859558723272892 1.0000   
         H         H         1.0       0.9199855984931943  0.8328452898898078  0.6428910442132378 1.0000   
         H         H         1.0       0.006045683566712645          0.8630078867012981 0.5936034156468923 1.0000   
         H         H         1.0       0.057672345523555935          0.882564309554814  0.5790406639519246 1.0000   
         H         H         1.0       0.09588067008798795           0.8236883356628915 0.6787244317019826 1.0000   
         H         H         1.0       0.04522671734704198           0.8056184710224537 0.687100995593689  1.0000   
         C         C         1.0       0.6876528829520405  0.7447822445749523  0.8289146030093945 1.0000   
         C         C         1.0       0.6814616573970538  0.721501845893717   0.8007931362986943 1.0000   
         C         C         1.0       0.6793159687167585  0.7284654375206226  0.7610905471642846 1.0000   
         C         C         1.0       0.6798096479430014  0.7597451250682246  0.7482907463764649 1.0000   
         C         C         1.0       0.6878428257399392  0.783260636288793   0.7770409879357877 1.0000   
         C         C         1.0       0.6904076982415247  0.776889039013017   0.8175730290663592 1.0000   
         H         H         1.0       0.6798083381481183  0.6976775689017641  0.8127998350812947 1.0000   
         H         H         1.0       0.6723483017660983  0.7085798140758622  0.7402593892131863 1.0000   
         H         H         1.0       0.6918268196456189  0.8068916119575229  0.7686391652295659 1.0000   
         H         H         1.0       0.6938901424678036  0.7958128504328575  0.8408429536106764 1.0000   
         C         C         1.0       0.6477452976504429  0.8203167778148076  0.7095546203228302 1.0000   
         C         C         1.0       0.6663729994402403  0.7996974329126016  0.6865957650352774 1.0000   
         C         C         1.0       0.6719537249424171  0.8081447601228392  0.6467318136599045 1.0000   
         C         C         1.0       0.6666561830429545  0.8390787543384459  0.6348325891264723 1.0000   
         C         C         1.0       0.6565742222270816  0.8608954797729628  0.6628616717532199 1.0000   
         C         C         1.0       0.6436367120100569  0.850858212821943   0.6996623566606736 1.0000   
         C         C         1.0       0.6777238444886517  0.7659743865776705  0.6996391419633378 1.0000   
         C         C         1.0       0.6498797566209783  0.7444621441254907  0.6776128274981581 1.0000   
         C         C         1.0       0.650548403267087   0.7306478616031276  0.6379542417870333 1.0000   
         C         C         1.0       0.625643730477428   0.7149619321668804  0.6208167555206752 1.0000   
         C         C         1.0       0.5961906315891122  0.71541307394367    0.6393402375964948 1.0000   
         C         C         1.0       0.5934272117995019  0.7306581173132484  0.6766075787872988 1.0000   
         C         C         1.0       0.6201870845389624  0.7451584272650628  0.6946517892425201 1.0000   
         C         C         1.0       0.7365404000146643  0.7815685485614691  0.7016945482608243 1.0000   
         C         C         1.0       0.7685267937153837  0.7746452950298047  0.704107366423015  1.0000   
         C         C         1.0       0.7808968724020338  0.7465649109875317  0.6900944918986883 1.0000   
         C         C         1.0       0.7592929749508227  0.7257938774051446  0.6702572264934193 1.0000   
         C         C         1.0       0.7269208414205317  0.7297821679918516  0.6710746808599388 1.0000   
         C         C         1.0       0.714656133322705   0.7580033605570535  0.6883439609366334 1.0000   
         C         C         1.0       0.8173681868395779  0.7363950504261989  0.6986420382070136 1.0000   
         C         C         1.0       0.8740679448930915  0.8125381293705002  0.7606929372372581 1.0000   
         C         C         1.0       0.8778602487267814  0.781718957991405   0.7738700035918562 1.0000   
         C         C         1.0       0.862554604236516   0.7582809115051775  0.7516241367582491 1.0000   
         C         C         1.0       0.8412871003325247  0.7643251477386144  0.7178640684718043 1.0000   
         C         C         1.0       0.8416227747666573  0.7947195694423986  0.7027774887316074 1.0000   
         C         C         1.0       0.85913212075636    0.818023233022464   0.7235708785876045 1.0000   
         C         C         1.0       0.835744094389334   0.7269938598636346  0.656175837278023  1.0000   
         C         C         1.0       0.8602481089473686  0.7051631872035964  0.6577795212399385 1.0000   
         C         C         1.0       0.9083970421986928  0.17971598119571164           0.6849143912757063 1.0000   
         C         C         1.0       0.862582260555883   0.7051178065835723  0.5849656887001078 1.0000   
         C         C         1.0       0.8427529446743706  0.7316584707803958  0.5844867114091098 1.0000   
         C         C         1.0       0.8304284091646588  0.7431930091149164  0.6204006862835996 1.0000   
         C         C         1.0       0.8137713417516672  0.6768849854212104  0.7223201132627649 1.0000   
         C         C         1.0       0.8062835283082301  0.6543941230137232  0.7496317129912661 1.0000   
         C         C         1.0       0.7976753685701692  0.6631454069434717  0.7889560900259798 1.0000   
         C         C         1.0       0.7919601697879068  0.6949402258669028  0.7979641916622084 1.0000   
         C         C         1.0       0.7979285759118407  0.7168643176093004  0.7699636630910834 1.0000   
         C         C         1.0       0.8104853881745523  0.7083404369756546  0.7322399392538202 1.0000   
         H         H         1.0       0.6341020766291172  0.8127110768462219  0.7359683936464135 1.0000   
         H         H         1.0       0.6854785800883146  0.7925365425482724  0.626181313888752  1.0000   
         H         H         1.0       0.6745373263444321  0.8455099736638859  0.6037718693976862 1.0000   
         H         H         1.0       0.6297076959524562  0.86697687215879    0.7160082405311574 1.0000   
         H         H         1.0       0.6706444455507063  0.7360594439491205  0.6217628562077083 1.0000   
         H         H         1.0       0.6278904364629906  0.7041812658440602  0.5922492329443931 1.0000   
         H         H         1.0       0.5710856509506613  0.7328456834859385  0.692410074219866  1.0000   
         H         H         1.0       0.6153150162139018  0.757337278446826   0.7231671544656307 1.0000   
         H         H         1.0       0.7279899585130131  0.804036865734689   0.7133642848842736 1.0000   
         H         H         1.0       0.7813861867541851  0.7930736537269146  0.7211806570415032 1.0000   
         H         H         1.0       0.7679807556234801  0.7028805823638863  0.6591952703296127 1.0000   
         H         H         1.0       0.7099110822601049  0.7100334224641089  0.6629823220920398 1.0000   
         H         H         1.0       0.8926370041792786  0.7757831617796376  0.8013113639393885 1.0000   
         H         H         1.0       0.8646902279716538  0.7355133294481434  0.7668029873951848 1.0000   
         H         H         1.0       0.8269699263482445  0.8005352909987911  0.6758443955371872 1.0000   
         H         H         1.0       0.8605977721568607  0.8417835134467231  0.7093971781955267 1.0000   
         H         H         1.0       0.8706653815583568  0.6936975562451568  0.683180995601039  1.0000   
         H         H         1.0       0.9149989802221414  0.15533700863580369           0.6815676540971383 1.0000   
         H         H         1.0       0.835793692279829   0.7425159929297919  0.5562608430208681 1.0000   
         H         H         1.0       0.8110791089977991  0.7621704085420072  0.6192592226947498 1.0000   
         H         H         1.0       0.8227326193708516  0.6665232959468972  0.6942698195803148 1.0000   
         H         H         1.0       0.8126299887580289  0.6289812469081707  0.7407259207901775 1.0000   
         H         H         1.0       0.7833643216226936  0.7041527271660736  0.8266469188771115 1.0000   
         H         H         1.0       0.799682056494593   0.7418930858510103  0.7776307264519225 1.0000   
         C         C         1.0       0.6916970821244663  0.05488064823578842           0.599018793551366  1.0000   
         C         C         1.0       0.6929856285222301  0.044235607565849655         0.5592768864825265 1.0000   
         C         C         1.0       0.7194579337382838  0.048524760477759   0.5362398561407673 1.0000   
         C         C         1.0       0.7461151781701411  0.06430496232946625           0.5522904175055063 1.0000   
         C         C         1.0       0.7462861087192337  0.07243158259589455           0.594913901010501  1.0000   
         C         C         1.0       0.7189013068696478  0.06943183867169433           0.6167439709472615 1.0000   
         H         H         1.0       0.6715002468927308  0.031310920096475625         0.5466608455156083 1.0000   
         H         H         1.0       0.7191834269376733  0.03840710788507429           0.5058320191949813 1.0000   
         H         H         1.0       0.768472581639394   0.077576736989166   0.6121576261229328 1.0000   
         H         H         1.0       0.7200345476091485  0.075435601628564   0.6484627338116644 1.0000   
         C         C         1.0       0.7892891130786056  0.12294149150140288           0.5447585570963093 1.0000   
         C         C         1.0       0.8020248294529296  0.09423041462277282           0.5334416360790902 1.0000   
         C         C         1.0       0.8354962596487059  0.09384668620463898           0.5295253524359541 1.0000   
         C         C         1.0       0.8555698631812642  0.1162660622822782  0.546776918910829  1.0000   
         C         C         1.0       0.8430618691287093  0.1435351450011917  0.5627817654708377 1.0000   
         C         C         1.0       0.8094600983405262  0.14794428741346177           0.5592128789361394 1.0000   
         C         C         1.0       0.7791273290956807  0.06535687923159594           0.5253883395516982 1.0000   
         C         C         1.0       0.7767250490301308  0.06554995757262305           0.47723030474547734          1.0000   
         C         C         1.0       0.7995577753243461  0.0521406280610579  0.45191799812434597          1.0000   
         C         C         1.0       0.7957752114444521  0.0491297606018144  0.4115582659798843 1.0000   
         C         C         1.0       0.7672653312637391  0.06011698450069902           0.39236173882169156          1.0000   
         C         C         1.0       0.7442385096718015  0.0749911689351217  0.4155459224194075 1.0000   
         C         C         1.0       0.7493675413700174  0.07780802918775787           0.4574801002322327 1.0000   
         C         C         1.0       0.8142429740171506  0.031202417535822313         0.576716157322169  1.0000   
         C         C         1.0       0.823631815304909   0.0025552616764865643        0.5939732606021323 1.0000   
         C         C         1.0       0.8082528485081352  0.9750293221734413  0.5827946470069246 1.0000   
         C         C         1.0       0.7906365183647776  0.9757176492390177  0.5454034811325561 1.0000   
         C         C         1.0       0.7840480081625918  0.0030642717316555768        0.52500704171204   1.0000   
         C         C         1.0       0.7932478344250724  0.032188027708861755         0.5414554884711732 1.0000   
         C         C         1.0       0.8054597351632096  0.9441551357565476  0.6099229009624122 1.0000   
         C         C         1.0       0.8464969348899799  0.9418040793277547  0.7337832358819195 1.0000   
         C         C         1.0       0.8277068501548773  0.9672885079842592  0.721313257146762  1.0000   
         C         C         1.0       0.8147932547258087  0.9682985119591329  0.68401053388181   1.0000   
         C         C         1.0       0.8205124214968641  0.9447909309643956  0.6553191319371279 1.0000   
         C         C         1.0       0.8367758853866972  0.9173182607975073  0.66937915798267   1.0000   
         C         C         1.0       0.847931548662207   0.9159466242671764  0.7087047691226812 1.0000   
         C         C         1.0       0.8251032719246623  0.9201724652009143  0.5811812152866154 1.0000   
         C         C         1.0       0.8096882363766486  0.8989113216024178  0.5546825760207645 1.0000   
         C         C         1.0       0.8270174092727643  0.8830503337963957  0.5244598768362723 1.0000   
         C         C         1.0       0.8609947846017167  0.883391873796675   0.5263794604910461 1.0000   
         C         C         1.0       0.8768437728775347  0.9030683597069101  0.5542319108166802 1.0000   
         C         C         1.0       0.8585340477520371  0.9218663032414612  0.5790275563983963 1.0000   
         C         C         1.0       0.7626780274248953  0.9043132223138128  0.6348877018713928 1.0000   
         C         C         1.0       0.7332937864996812  0.8975421359590536  0.6522130197118808 1.0000   
         C         C         1.0       0.7098547027982243  0.9214683374810857  0.653398410231393  1.0000   
         C         C         1.0       0.7151338374138801  0.9487046913021974  0.6320777412720133 1.0000   
         C         C         1.0       0.7450838515279595  0.9570927152561151  0.6193083924367322 1.0000   
         C         C         1.0       0.7694427328100122  0.9346254493311867  0.6199824547913603 1.0000   
         H         H         1.0       0.7629573376612769  0.1266040094692642  0.5444290553290102 1.0000   
         H         H         1.0       0.847977698739399   0.0720494551562969  0.5180999002246259 1.0000   
         H         H         1.0       0.8806575011417552  0.11563789600493468           0.5441916396986367 1.0000   
         H         H         1.0       0.795554699217838   0.1681312152806096  0.5676646156853757 1.0000   
         H         H         1.0       0.8212436291423639  0.043589010897822966         0.4663423194924917 1.0000   
         H         H         1.0       0.8128570153525911  0.03287395720155395           0.3963459496231553 1.0000   
         H         H         1.0       0.7234640276194579  0.08731045666876658           0.40200557797147646          1.0000   
         H         H         1.0       0.7322234129259623  0.08848262701606147           0.47591317608531924          1.0000   
         H         H         1.0       0.823828091160624   0.05301677391574722           0.5914908866121605 1.0000   
         H         H         1.0       0.8389963109891518  0.006361338300727937         0.6196459860018871 1.0000   
         H         H         1.0       0.7793029716099571  0.9531838708270708  0.5321316750112357 1.0000   
         H         H         1.0       0.7662071742410066  0.004283728157306044         0.49882652536938527          1.0000   
         H         H         1.0       0.8277741324109984  0.9869887587913794  0.743127110197106  1.0000   
         H         H         1.0       0.7988454289139114  0.9867111480574292  0.6729379410288931 1.0000   
         H         H         1.0       0.8415721389600428  0.8963530390122761  0.6493620855934029 1.0000   
         H         H         1.0       0.8624636217570241  0.896613669120567   0.717269267276219  1.0000   
         H         H         1.0       0.7832111636374169  0.8950759347822118  0.5560208069743764 1.0000   
         H         H         1.0       0.8155768623316795  0.8698882988080017  0.5001479619974617 1.0000   
         H         H         1.0       0.9015141791134945  0.9020230062815568  0.5562860099220841 1.0000   
         H         H         1.0       0.87274531492228    0.9354578825812951  0.5990173043908443 1.0000   
         H         H         1.0       0.7812441093327784  0.8860952577326484  0.6320595046561138 1.0000   
         H         H         1.0       0.7278009141666854  0.8747034616859319  0.6612943254188048 1.0000   
         H         H         1.0       0.6949125681075142  0.9638771912591532  0.6255818765750828 1.0000   
         H         H         1.0       0.749084120173104   0.9813372087364475  0.6130214819741003 1.0000   
         C         C         1.0       0.15554235897697133           0.9453761244674092 0.8424570819775204 1.0000   
         C         C         1.0       0.17295363325728874           0.9603839730350016 0.813104959992312  1.0000   
         C         C         1.0       0.15700736498766044           0.9767376312422419 0.7835810451284853 1.0000   
         C         C         1.0       0.12326487107270134           0.9782784528775859 0.7793351812868581 1.0000   
         C         C         1.0       0.10539218524076643           0.9613393691428048 0.8072128160683614 1.0000   
         C         C         1.0       0.12231108534519342           0.9491528836624593 0.8403082715425649 1.0000   
         H         H         1.0       0.19972873759956022           0.9607490085375372 0.8133092815243098 1.0000   
         H         H         1.0       0.1718163762263485  0.9896571118313725  0.762712783944055  1.0000   
         H         H         1.0       0.07949700163780005           0.9623850271641594 0.8080072121732735 1.0000   
         H         H         1.0       0.10795763016129789           0.9374376099339968 0.8612555379950069 1.0000   
         C         C         1.0       0.13456805712621578           0.9739393256856922 0.6792304298507237 1.0000   
         C         C         1.0       0.10903785116635611           0.9731802019426474 0.7055274272509423 1.0000   
         C         C         1.0       0.08773808785548765           0.9485219553659091 0.699178445517223  1.0000   
         C         C         1.0       0.0915004951085443  0.9250852768788139  0.6701980073993145 1.0000   
         C         C         1.0       0.11488638007817165           0.926649323788584  0.6428703415142099 1.0000   
         C         C         1.0       0.13530488003815822           0.9524661838533737 0.6474982654683572 1.0000   
         C         C         1.0       0.10683070385123394           0.9981333249466173 0.7430770001826233 1.0000   
         C         C         1.0       0.11920807316624127           0.03375471303262856          0.7340778982698261 1.0000   
         C         C         1.0       0.11377598536697664           0.048155205631807085         0.6945073292101108 1.0000   
         C         C         1.0       0.12008661632215145           0.07927518291973201          0.6905128072299367 1.0000   
         C         C         1.0       0.13005595709015538           0.09736813185191107          0.7228445937295844 1.0000   
         C         C         1.0       0.13652053353979832           0.08344056208565664          0.7605578418783445 1.0000   
         C         C         1.0       0.13039230349973785           0.05258056177544024          0.7664142199728122 1.0000   
         C         C         1.0       0.06091795863331817           0.019493524564504927         0.7898127823623754 1.0000   
         C         C         1.0       0.03045608314602788           0.03183615154995789          0.7954257220849668 1.0000   
         C         C         1.0       0.009482009952478387          0.03759898073062695          0.7626493575225137 1.0000   
         C         C         1.0       0.018800240018980174          0.028784821191182086         0.7235965608585293 1.0000   
         C         C         1.0       0.04752911422933259           0.013174916323419605         0.7176078728795527 1.0000   
         C         C         1.0       0.06947910409600433           0.009906877643746093         0.7507059072016492 1.0000   
         C         C         1.0       0.9740851204921419  0.0530944008975347  0.7673407615526582 1.0000   
         C         C         1.0       0.921046441457183   0.9651859899532226  0.7766728387674143 1.0000   
         C         C         1.0       0.9381378008317784  0.9786884964209283  0.8108886428066452 1.0000   
         C         C         1.0       0.9563172650362429  0.0054002637421628474        0.8057409841486071 1.0000   
         C         C         1.0       0.9529542945015297  0.021413077032007344         0.7711174476814106 1.0000   
         C         C         1.0       0.9382672953291054  0.0073190854693514495        0.7364216252108512 1.0000   
         C         C         1.0       0.9212476208850405  0.9796899922985713  0.7381358986692047 1.0000   
         C         C         1.0       0.9638725009333504  0.07636616705247712           0.7317063873470494 1.0000   
         C         C         1.0       0.8938937566811164  0.5971111062050795  0.6633548405862701 1.0000   
         C         C         1.0       0.8864306766605604  0.6013708322607986  0.6218014386854976 1.0000   
         C         C         1.0       0.8905944942975521  0.5753461309925011  0.5951290618978567 1.0000   
         C         C         1.0       0.8947191020400301  0.5462474749286277  0.6108127899107796 1.0000   
         C         C         1.0       0.9323554157107156  0.0778586976484894  0.7147860050720453 1.0000   
         C         C         1.0       0.9420317224014528  0.07906676490901354           0.8259181782479802 1.0000   
         C         C         1.0       0.9430903848116975  0.09633260933595511           0.8608302436776993 1.0000   
         C         C         1.0       0.9701401291658668  0.11393515093652873           0.8744269281488674 1.0000   
         C         C         1.0       0.9963285382420394  0.1132327738121186  0.8507033217648586 1.0000   
         C         C         1.0       0.9967333632145394  0.09423314840452557           0.8174160877084984 1.0000   
         C         C         1.0       0.970685950470166   0.0766197814491889  0.80468092926392   1.0000   
         H         H         1.0       0.15103584332436726           0.9939270399314151 0.6764296825618755 1.0000   
         H         H         1.0       0.06996584550783558           0.9446317713399854 0.7222315097488522 1.0000   
         H         H         1.0       0.0734930122930344  0.9062145077788599  0.6692670318290477 1.0000   
         H         H         1.0       0.15421225980983677           0.9561008713893147 0.6250124269226136 1.0000   
         H         H         1.0       0.10250006288071489           0.03757250492854958          0.6676768618492525 1.0000   
         H         H         1.0       0.11494173338565683           0.08879809692420171          0.6608457139648669 1.0000   
         H         H         1.0       0.14614762928534453           0.09783363429939596          0.7852532678165186 1.0000   
         H         H         1.0       0.1355139630925204  0.04097477621659884           0.7954754842451768 1.0000   
         H         H         1.0       0.07803826809066838           0.01783546699210725          0.8138394755737934 1.0000   
         H         H         1.0       0.02582219615817083           0.03803505200854418          0.8253241827664356 1.0000   
         H         H         1.0       0.0025145721260637632         0.031445110343716554         0.696600412475343  1.0000   
         H         H         1.0       0.054380008371158306          0.0069668312385888775        0.6873327189243338 1.0000   
         H         H         1.0       0.9396041788888487  0.9681733565722596  0.8392144415975177 1.0000   
         H         H         1.0       0.9701496902920691  0.016169776350116294         0.8299773629558186 1.0000   
         H         H         1.0       0.9412937983791078  0.018657683595154184         0.7074875463172735 1.0000   
         H         H         1.0       0.9071771517788746  0.9716398265619458  0.71085046643302   1.0000   
         H         H         1.0       0.008580759906465119          0.10478002199211933          0.7281209313145653 1.0000   
         H         H         1.0       0.8786163446208393  0.6232587765739414  0.6068553969335507 1.0000   
         H         H         1.0       0.8940702847973945  0.5261351326795846  0.5900355354847076 1.0000   
         H         H         1.0       0.9118646747869615  0.06764773716544603           0.7315930976288423 1.0000   
         H         H         1.0       0.9212367699242711  0.06586379168250156           0.8141533351237917 1.0000   
         H         H         1.0       0.9214667306858338  0.09680050198527113           0.8778675319073979 1.0000   
         H         H         1.0       0.0163045755126785  0.12855513643341365           0.8560106927734584 1.0000   
         H         H         1.0       0.018388994408051307          0.09506478839451593          0.7997580670747751 1.0000   
         C         C         1.0       0.16830977417826765           0.8665371801399618 0.2008252562873232 1.0000   
         C         C         1.0       0.16232399571531173           0.8579401354529935 0.24003602958087852          1.0000   
         C         C         1.0       0.1634948737913857  0.8256530622619279  0.24948279554440828          1.0000   
         C         C         1.0       0.1756381448433187  0.8031251730130622  0.22217201627610492          1.0000   
         C         C         1.0       0.18499903027402592           0.8132179654937132 0.18311662895200606          1.0000   
         C         C         1.0       0.17933545854394609           0.8437697555836051 0.17199961192466698          1.0000   
         H         H         1.0       0.15529130479543382           0.8740743144721824 0.2646300060428255 1.0000   
         H         H         1.0       0.1604440148048256  0.8208084004502507  0.28250114616401467          1.0000   
         H         H         1.0       0.1959429076920417  0.7968299730036277  0.16166402014238682          1.0000   
         H         H         1.0       0.18128861323136966           0.8475136149111484 0.13940743843747258          1.0000   
         C         C         1.0       0.16929371912763586           0.7390696771414443 0.16803389566237556          1.0000   
         C         C         1.0       0.18967951938482594           0.7415418402205026 0.20488774078019778          1.0000   
         C         C         1.0       0.21234739287139792           0.7182832654809581 0.210540703067538  1.0000   
         C         C         1.0       0.21961255371089916           0.697824508644438  0.18088337024941634          1.0000   
         C         C         1.0       0.20272802186882896           0.6974090261806354 0.14453190209115938          1.0000   
         C         C         1.0       0.17787609634910528           0.717950398427334  0.13745928802035404          1.0000   
         C         C         1.0       0.1863888762862831  0.7689883989620813  0.24032368949000202          1.0000   
         C         C         1.0       0.16188407489010934           0.7538861814923289 0.27037628912702066          1.0000   
         C         C         1.0       0.1727048041737854  0.7300480071675141  0.2971240805270692 1.0000   
         C         C         1.0       0.15115799411759828           0.7129671461776959 0.3174673120261511 1.0000   
         C         C         1.0       0.11900447036462693           0.7219224270863305 0.31608337378404816          1.0000   
         C         C         1.0       0.10794665470638298           0.7458044811674882 0.2908103379389439 1.0000   
         C         C         1.0       0.13043650972920728           0.7621954162459748 0.27043734138216635          1.0000   
         C         C         1.0       0.24638693629898922           0.7817369199225211 0.23285799485593667          1.0000   
         C         C         1.0       0.2775962833079276  0.7868926434321264  0.24452786583214323          1.0000   
         C         C         1.0       0.2864124683257427  0.7871492925053503  0.28600230698837176          1.0000   
         C         C         1.0       0.2631069109538249  0.7831575786331056  0.31362319651456383          1.0000   
         C         C         1.0       0.2302482415981812  0.7780901293647798  0.29926423469687663          1.0000   
         C         C         1.0       0.22130210112669912           0.7771906180051199 0.25988873532883866          1.0000   
         C         C         1.0       0.3252217495052587  0.7873666154628559  0.2936477805185806 1.0000   
         C         C         1.0       0.34592944675318466           0.6877384856120046 0.27465847471278165          1.0000   
         C         C         1.0       0.34572358448593016           0.7073752374965295 0.2420195736666391 1.0000   
         C         C         1.0       0.33870452179052507           0.7385397362697259 0.24672388975558734          1.0000   
         C         C         1.0       0.33429045092235404           0.7531808715666608 0.28563600302740194          1.0000   
         C         C         1.0       0.33031712260071794           0.7318085229781125 0.317635445290666  1.0000   
         C         C         1.0       0.34011091855380904           0.7006821353872618 0.3114598749579649 1.0000   
         C         C         1.0       0.3397228682780572  0.7969928979133738  0.3382941546396462 1.0000   
         C         C         1.0       0.3222112680259924  0.815693971719037   0.3666081421498968 1.0000   
         C         C         1.0       0.3377368313979386  0.8267781154293719  0.4013073025242099 1.0000   
         C         C         1.0       0.3702646359592053  0.8224754780197772  0.4085472551937652 1.0000   
         C         C         1.0       0.3873555184115241  0.8059906834319128  0.3800279521299448 1.0000   
         C         C         1.0       0.37283377340426654           0.7929119658550035 0.3454410393669722 1.0000   
         C         C         1.0       0.3571386011234219  0.8092821753705801  0.22891284989561594          1.0000   
         C         C         1.0       0.3552049565510014  0.8290146037388844  0.1952885001758721 1.0000   
         C         C         1.0       0.33564999998183503           0.8567362362213199 0.19948992454040995          1.0000   
         C         C         1.0       0.3200122345272345  0.8637989368352402  0.2352233738170188 1.0000   
         C         C         1.0       0.3228662601014303  0.8447300818768136  0.2674664813989502 1.0000   
         C         C         1.0       0.3385162236712759  0.8145777629441036  0.26422187821207826          1.0000   
         H         H         1.0       0.14706546377922436           0.7539856075468556 0.1638270100638807 1.0000   
         H         H         1.0       0.22740685841869615           0.7187441407605945 0.23617562198073414          1.0000   
         H         H         1.0       0.23972726264309768           0.6833630581537524 0.18578598137905733          1.0000   
         H         H         1.0       0.16441248937233266           0.7158799901189447 0.10642560395041166          1.0000   
         H         H         1.0       0.19752793427921103           0.7226039474919771 0.2986781555362079 1.0000   
         H         H         1.0       0.16131731378900682           0.6943627521120085 0.33657239007960427          1.0000   
         H         H         1.0       0.08283318499791381           0.7505149698730007 0.2848892025434545 1.0000   
         H         H         1.0       0.1207937371474026  0.7794563935288616  0.24750646415445332          1.0000   
         H         H         1.0       0.24233003793778435           0.778575783573173  0.19902533794625532          1.0000   
         H         H         1.0       0.2948863105877876  0.7852300974517565  0.22113536657130697          1.0000   
         H         H         1.0       0.2672030658696037  0.7765138572890005  0.3453858689222821 1.0000   
         H         H         1.0       0.21384483137965998           0.7752211580012836 0.32227375489804555          1.0000   
         H         H         1.0       0.3542884539739844  0.6988666126183115  0.21214250056152859          1.0000   
         H         H         1.0       0.339022136444273   0.7528437990540313  0.2207356266332203 1.0000   
         H         H         1.0       0.32154914261488377           0.7384957728182822 0.34888054535961965          1.0000   
         H         H         1.0       0.34078469289853175           0.685313238075966  0.3384327387781454 1.0000   
         H         H         1.0       0.29809892952857087           0.8208433445436428 0.3621170401251367 1.0000   
         H         H         1.0       0.32400782422772856           0.8432721622018267 0.4178099747030641 1.0000   
         H         H         1.0       0.411760068044901   0.8038633993584687  0.3870897721631576 1.0000   
         H         H         1.0       0.385300379306768   0.7792750070510507  0.32449871610475844          1.0000   
         H         H         1.0       0.37218873318487555           0.789353315139682  0.2272630625216353 1.0000   
         H         H         1.0       0.3689736496747951  0.8247087076745061  0.16859607547973748          1.0000   
         H         H         1.0       0.3034883070830561  0.8838320137221676  0.23194169465474482          1.0000   
         H         H         1.0       0.3074051193645394  0.8509203446911249  0.29439836436433386          1.0000   
         C         C         1.0       0.517360932333919   0.7857987668633917  0.99832030602136   1.0000   
         C         C         1.0       0.5476512221224427  0.7895883853918775  0.017261433561025497         1.0000   
         C         C         1.0       0.5495059712922734  0.8063448068192774  0.05349413158023886          1.0000   
         C         C         1.0       0.5234440975782505  0.8225195373538428  0.0706231905947079 1.0000   
         C         C         1.0       0.49382626601700086           0.8190307942851942 0.05034421853044835          1.0000   
         C         C         1.0       0.49164160019772174           0.8011609723066881 0.014804820127491292         1.0000   
         H         H         1.0       0.5686183058575652  0.7790943695193648  0.0044405249439225525        1.0000   
         H         H         1.0       0.5703373048602827  0.8034734713830989  0.07127507492745222          1.0000   
         H         H         1.0       0.47073005686590125           0.8292209815486539 0.05858680093340296          1.0000   
         H         H         1.0       0.47003972248673936           0.7999196391329942 0.998056165486857  1.0000   
         C         C         1.0       0.5036971167337895  0.8890221031304938  0.083291942374639  1.0000   
         C         C         1.0       0.5060094489821337  0.8698796392130647  0.11633482023483332          1.0000   
         C         C         1.0       0.49296714546557324           0.8803361651147147 0.15323054852808515          1.0000   
         C         C         1.0       0.47423351646719203           0.9071033089651149 0.1547395506379663 1.0000   
         C         C         1.0       0.4683706199182221  0.9237902688250001  0.1184836021096658 1.0000   
         C         C         1.0       0.48321623988017137           0.9143750325869477 0.08279922790533245          1.0000   
         C         C         1.0       0.5257097838585886  0.839048476796766   0.11415041943191251          1.0000   
         C         C         1.0       0.559573978811351   0.8533866564107362  0.12979958959889792          1.0000   
         C         C         1.0       0.5664858027683674  0.8544355040103251  0.172244092921906  1.0000   
         C         C         1.0       0.5973784386808693  0.8603617624640821  0.1878303220539168 1.0000   
         C         C         1.0       0.6221085623164214  0.8676826343759132  0.1625318076083473 1.0000   
         C         C         1.0       0.6151730331805073  0.8664462581030121  0.12181261044175873          1.0000   
         C         C         1.0       0.5847045248905499  0.8596586263466274  0.10548278125722632          1.0000   
         C         C         1.0       0.4858098778490578  0.8025422262022475  0.15120128523759768          1.0000   
         C         C         1.0       0.47956405024883764           0.7742990834143985 0.170517081180815  1.0000   
         C         C         1.0       0.5025561481919217  0.7516497035959291  0.17410974326935347          1.0000   
         C         C         1.0       0.5333830342565735  0.7589134525415414  0.162576835122759  1.0000   
         C         C         1.0       0.5430732950898232  0.7880215456057418  0.15318031750446148          1.0000   
         C         C         1.0       0.5178700297264103  0.8094182332611246  0.14222058725453435          1.0000   
         C         C         1.0       0.4959044469171883  0.7160348742303966  0.18755676661398413          1.0000   
         C         C         1.0       0.42141594904554985           0.6751683183866727 0.2572895202757444 1.0000   
         C         C         1.0       0.43266360175195356           0.6591168423582929 0.22489048620222954          1.0000   
         C         C         1.0       0.45527317194575295           0.6732512677525676 0.20168237116299692          1.0000   
         C         C         1.0       0.4644962910310707  0.7035328794291638  0.20944762515579263          1.0000   
         C         C         1.0       0.452546970842748   0.7203839542287516  0.2423673949323353 1.0000   
         C         C         1.0       0.43065405959539954           0.705243183144279  0.26779328003795994          1.0000   
         C         C         1.0       0.522293959749018   0.7056519575980349  0.21937024204920386          1.0000   
         C         C         1.0       0.5776304575351758  0.0925720968873307  0.1351383737481633 1.0000   
         C         C         1.0       0.6036559037091543  0.08432293859303863           0.16096958567620323          1.0000   
         C         C         1.0       0.6199041954430358  0.10894186905120451           0.1800162828488032 1.0000   
         C         C         1.0       0.5516304277465912  0.7199121353532025  0.2824074113475779 1.0000   
         C         C         1.0       0.5315546309820469  0.7270236591151288  0.25115986012099945          1.0000   
         C         C         1.0       0.5185597854305054  0.6839829425851822  0.12491538198017405          1.0000   
         C         C         1.0       0.5146045280909913  0.6721753198299442  0.0854822939023756 1.0000   
         C         C         1.0       0.48704640966630564           0.6778872767133367 0.06123372220251011          1.0000   
         C         C         1.0       0.46666144260097997           0.7007313438852064 0.07338623245234666          1.0000   
         C         C         1.0       0.46892952872533933           0.7115008930313661 0.11384933399659958          1.0000   
         C         C         1.0       0.4955255249452487  0.7028396449328081  0.14171626761099776          1.0000   
         H         H         1.0       0.5192528897846604  0.8839809059309683  0.05694436738048192          1.0000   
         H         H         1.0       0.4939338534977973  0.8670813669508752  0.18191859758239892          1.0000   
         H         H         1.0       0.46260804726603794           0.9151085836317413 0.1835859960992132 1.0000   
         H         H         1.0       0.4803689067880842  0.9263343169674869  0.0556400884276016 1.0000   
         H         H         1.0       0.5469086052289952  0.8504392261744314  0.19210538916999176          1.0000   
         H         H         1.0       0.600247027110547   0.8615584159681983  0.22122648711373238          1.0000   
         H         H         1.0       0.6347634808424312  0.8699274902176755  0.1018838907764279 1.0000   
         H         H         1.0       0.5817458169509998  0.8592108147780804  0.07433840560660765          1.0000   
         H         H         1.0       0.4673077112633644  0.8186426654967144  0.14635683827674062          1.0000   
         H         H         1.0       0.45577740412664747           0.7677899339563412 0.17657498387897164          1.0000   
         H         H         1.0       0.5507114929120791  0.7383604488451166  0.16533757381650838          1.0000   
         H         H         1.0       0.5668512711383549  0.7925087699546671  0.14373095000732228          1.0000   
         H         H         1.0       0.4238323640873824  0.6359289393099962  0.21768087628297272          1.0000   
         H         H         1.0       0.46544303926262875           0.6593895499012877 0.1782844709725262 1.0000   
         H         H         1.0       0.46100278309606796           0.7445417950302204 0.25096281822597244          1.0000   
         H         H         1.0       0.4246809733201936  0.7162444933734159  0.2967912894566347 1.0000   
         H         H         1.0       0.5588367846662651  0.07572388252427298           0.12648234096021405          1.0000   
         H         H         1.0       0.611785078414842   0.061306503667419854         0.16950205795426943          1.0000   
         H         H         1.0       0.5578132849211509  0.7383378437598525  0.30442017729685295          1.0000   
         H         H         1.0       0.5215918286534816  0.7508915988919653  0.2495334443381291 1.0000   
         H         H         1.0       0.5415007652982319  0.6785820797727129  0.1382957863270151 1.0000   
         H         H         1.0       0.5351426206543559  0.6571608440237878  0.07237346460790617          1.0000   
         H         H         1.0       0.4471896764801988  0.7080350482832118  0.05274587096093852          1.0000   
         H         H         1.0       0.448143953812702   0.7267189410884347  0.12225030063928854          1.0000   
         C         C         1.0       0.25915362993608376           0.02917190708125439          0.9913309993767557 1.0000   
         C         C         1.0       0.23028424583149912           0.03628553133163237          0.00793564492813581          1.0000   
         C         C         1.0       0.22022540268374857           0.023781827140818113         0.04508682103826267          1.0000   
         C         C         1.0       0.24131546542146257           0.005305421814023381         0.06780301288252288          1.0000   
         C         C         1.0       0.27131623457175585           0.0002740546653909881        0.05150081427560815          1.0000   
         C         C         1.0       0.279494169115882   0.010686516992888695         0.013187506014363137         1.0000   
         H         H         1.0       0.2139774714602264  0.052903222195531674         0.9944295593384659 1.0000   
         H         H         1.0       0.1949234342825516  0.028184110600084855         0.05185362939603411          1.0000   
         H         H         1.0       0.28911902754746877           0.9885887192758175 0.07119209035950869          1.0000   
         H         H         1.0       0.3030995750597107  0.004414724939075798         0.0021090625286135367        1.0000   
         C         C         1.0       0.24938158054662707           0.9384071703414183 0.0938935769758793 1.0000   
         C         C         1.0       0.24458645675536717           0.960659736586518  0.12491719921227551          1.0000   
         C         C         1.0       0.2491399010537464  0.9510532495930084  0.1639941924084305 1.0000   
         C         C         1.0       0.261360242630536   0.9216474328011901  0.1724951734375384 1.0000   
         C         C         1.0       0.2712489879232363  0.9015420925322419  0.14201415552642116          1.0000   
         C         C         1.0       0.2655471898241246  0.9098303197887926  0.1029058533895022 1.0000   
         C         C         1.0       0.2371627387403729  0.996360451612979   0.11661872957007358          1.0000   
         C         C         1.0       0.20142919390282832           0.00023455218567636216       0.13074660551169193          1.0000   
         C         C         1.0       0.19306464934908382           0.01540005055739102          0.1679828402300958 1.0000   
         C         C         1.0       0.1610871032235276  0.016501881605127666         0.17845458401139624          1.0000   
         C         C         1.0       0.13792572398517722           0.0016811818852593419        0.15237457856007675          1.0000   
         C         C         1.0       0.14654167488515246           0.9844528514722567 0.1182858943082239 1.0000   
         C         C         1.0       0.17787231705615053           0.9843521411574991 0.10615621574940737          1.0000   
         C         C         1.0       0.29446542725910524           0.009224042318156211         0.15124927603905514          1.0000   
         C         C         1.0       0.31924192804413765           0.029873605850430973         0.16240564590180329          1.0000   
         C         C         1.0       0.3153451499702625  0.06244553044142265           0.15676698671102218          1.0000   
         C         C         1.0       0.28327704382898383           0.07184640751000404          0.15379492131713546          1.0000   
         C         C         1.0       0.25855085456630406           0.05212613119164078          0.14728081443442864          1.0000   
         C         C         1.0       0.2626718400383801  0.020188166759026904         0.14163343096798275          1.0000   
         C         C         1.0       0.3433102879724272  0.08581860479392134           0.14823419646898728          1.0000   
         C         C         1.0       0.3544778118983849  0.0976771000237402  0.28160770585332556          1.0000   
         C         C         1.0       0.37539337294036357           0.07878894667533509          0.26167952351359847          1.0000   
         C         C         1.0       0.3732236894097085  0.07497589679441208           0.21993293261716995          1.0000   
         C         C         1.0       0.3516382062141858  0.09459876307812931           0.19698812658367837          1.0000   
         C         C         1.0       0.3300663764896136  0.11324281674688241           0.218970175487045  1.0000   
         C         C         1.0       0.33187973517688857           0.11477790557829892          0.2603458492589557 1.0000   
         C         C         1.0       0.3331929516055357  0.11317215344052878           0.12199839359750864          1.0000   
         C         C         1.0       0.3151103399850232  0.10916840021439511           0.08594729216228303          1.0000   
         C         C         1.0       0.279542428492635   0.6384714930063482  0.06713374502533864          1.0000   
         C         C         1.0       0.27549462830177707           0.6630572803678201 0.09704952184661586          1.0000   
         C         C         1.0       0.29711230588097853           0.6645436701078641 0.1300668450594582 1.0000   
         C         C         1.0       0.33954698282165663           0.1451148168075771 0.1345658885539356 1.0000   
         C         C         1.0       0.40230299984488044           0.07753262197329369          0.1281444214071843 1.0000   
         C         C         1.0       0.4257830371732604  0.061040873630477055         0.1075330168041535 1.0000   
         C         C         1.0       0.4186627450363202  0.03962075104011653           0.07701200376343831          1.0000   
         C         C         1.0       0.38609858316140894           0.0335634769008486 0.0686657722735533 1.0000   
         C         C         1.0       0.36267672718738175           0.049037718646687045         0.08874550608200393          1.0000   
         C         C         1.0       0.3700650326646578  0.0691524782533075  0.12273273501402215          1.0000   
         H         H         1.0       0.24482613202916734           0.9388860813943142 0.06116719711924845          1.0000   
         H         H         1.0       0.24620705925427622           0.9669339296789135 0.19118730387195004          1.0000   
         H         H         1.0       0.2625479009392599  0.9126168728704803  0.2025497992783023 1.0000   
         H         H         1.0       0.27096669530902945           0.8933964609184261 0.07654573588972768          1.0000   
         H         H         1.0       0.21216364666354703           0.028369523793536633         0.18673292120842389          1.0000   
         H         H         1.0       0.15217794753242855           0.02791918875227295          0.20472444228523368          1.0000   
         H         H         1.0       0.12742617862773242           0.9719150927568301 0.098295605166971  1.0000   
         H         H         1.0       0.18513324589028357           0.9706037936126283 0.0788349939089934 1.0000   
         H         H         1.0       0.3005483699707389  0.9841034833700087  0.14859445453790854          1.0000   
         H         H         1.0       0.345062831707113   0.021417701068352946         0.16397692692763388          1.0000   
         H         H         1.0       0.2768047736032879  0.09653673401205243           0.14944150743615947          1.0000   
         H         H         1.0       0.23531419425941136           0.06140975059065612          0.14092579210287082          1.0000   
         H         H         1.0       0.390206533920979   0.06560084944395594           0.28178375676181   1.0000   
         H         H         1.0       0.3902670085859576  0.058792425869134135         0.2058700611084907 1.0000   
         H         H         1.0       0.31023002676558825           0.12601875556405973          0.20441935643167944          1.0000   
         H         H         1.0       0.3138023847352978  0.12887971072125626           0.2762732099102241 1.0000   
         H         H         1.0       0.311889758197475   0.0856318748649354  0.07551977880287741          1.0000   
         H         H         1.0       0.2597053497848565  0.6353765780151073  0.047576792276134316         1.0000   
         H         H         1.0       0.29434903136692886           0.6853545148385931 0.1525024560616662 1.0000   
         H         H         1.0       0.35242139335430905           0.15100943872140782          0.1633819428162553 1.0000   
         H         H         1.0       0.40663979491104046           0.09545399685613609          0.1524924580723479 1.0000   
         H         H         1.0       0.45117340735972017           0.06314055659383988          0.1163314005565319 1.0000   
         H         H         1.0       0.3782402743432143  0.018741676308044797         0.04735582143931283          1.0000   
         H         H         1.0       0.3385689086041268  0.04201558689203333           0.07922598839001638          1.0000   
         C         C         1.0       0.5783586826116298  0.959843755951827   0.1402140808482215 1.0000   
         C         C         1.0       0.5478791294448155  0.971691840847689   0.15014465230765822          1.0000   
         C         C         1.0       0.5410084549476106  0.9765174974514886  0.19074126016209392          1.0000   
         C         C         1.0       0.5630717218276741  0.9684259900895932  0.22188294428888986          1.0000   
         C         C         1.0       0.5936623241362806  0.9571194253444202  0.21073306435047248          1.0000   
         C         C         1.0       0.5991416923897392  0.949620069488901   0.17160503039676575          1.0000   
         H         H         1.0       0.52920428380923    0.9782581558459199  0.127410768237499  1.0000   
         H         H         1.0       0.515959069690215   0.9829959343129324  0.19849906546586088          1.0000   
         H         H         1.0       0.613271282897599   0.9494869629513515  0.23049317029219937          1.0000   
         H         H         1.0       0.6231784433803869  0.9387607820018188  0.16426527248825853          1.0000   
         C         C         1.0       0.6084891482137305  0.016102803637066065         0.281312946063264  1.0000   
         C         C         1.0       0.5771251218591893  0.011759634804016095         0.2701126499374467 1.0000   
         C         C         1.0       0.5601230403975851  0.037512882058494235         0.25259391504533757          1.0000   
         C         C         1.0       0.5742157954221819  0.06689564402822668           0.2501948000730362 1.0000   
         C         C         1.0       0.6063671629991771  0.06937545235385345           0.26265627874219766          1.0000   
         C         C         1.0       0.6231101011322985  0.04517210206721822           0.27965627241204855          1.0000   
         C         C         1.0       0.5585091625192036  0.9770951690378423  0.26945737501530936          1.0000   
         C         C         1.0       0.5748736847745874  0.9505677071724562  0.2992822050432525 1.0000   
         C         C         1.0       0.5860196179960011  0.9603136430577686  0.33677686917372457          1.0000   
         C         C         1.0       0.6047976682135685  0.939060969576863   0.3593253947737908 1.0000   
         C         C         1.0       0.6109451865543547  0.9088374806258613  0.34567072477173083          1.0000   
         C         C         1.0       0.5952867382414179  0.8982265191038639  0.3106728644227001 1.0000   
         C         C         1.0       0.5788417653622171  0.9185623263606846  0.28780263309479115          1.0000   
         C         C         1.0       0.504069545469214   0.9457995268082494  0.2709149489937674 1.0000   
         C         C         1.0       0.4725924715811787  0.9420425310478707  0.28069998501745935          1.0000   
         C         C         1.0       0.4542398965201332  0.9656121125052484  0.2991478505642348 1.0000   
         C         C         1.0       0.4710347424925762  0.9936274917270456  0.30885771709369525          1.0000   
         C         C         1.0       0.5041930073444255  0.9965867479277921  0.3007047370325144 1.0000   
         C         C         1.0       0.5203306924780794  0.9736535844665948  0.2808202026326837 1.0000   
         C         C         1.0       0.41548359662286183           0.9631677111954707 0.3044121248411175 1.0000   
         C         C         1.0       0.35569589068978824           0.041725928871288565         0.35093260907615614          1.0000   
         C         C         1.0       0.38518074268346925           0.03533663772287543          0.3696969636621252 1.0000   
         C         C         1.0       0.4032867024429413  0.010766855133311548         0.35469847392590703          1.0000   
         C         C         1.0       0.39367251678795356           0.990887422942646  0.3217881186071018 1.0000   
         C         C         1.0       0.3640341577523043  0.9972333290675278  0.30570060206071503          1.0000   
         C         C         1.0       0.3469196866348991  0.023341279958180472         0.3161729233297938 1.0000   
         C         C         1.0       0.4083565014395097  0.9367360113239049  0.336581655969028  1.0000   
         C         C         1.0       0.42789808878901653           0.930905411725809  0.36975493743863985          1.0000   
         C         C         1.0       0.42071166979447855           0.9090499778189804 0.39931939417813045          1.0000   
         C         C         1.0       0.3919575024531396  0.895647180063021   0.39997276716298663          1.0000   
         C         C         1.0       0.369444823520814   0.9019107880804847  0.36805405472393576          1.0000   
         C         C         1.0       0.3792696441770668  0.9203112711779698  0.33511998645077723          1.0000   
         C         C         1.0       0.4089391985982173  0.9847593239509314  0.22967048518744362          1.0000   
         C         C         1.0       0.40774908517743397           0.9802829129095562 0.18932995913384343          1.0000   
         C         C         1.0       0.4044736192891854  0.9503090637320627  0.1738491204763729 1.0000   
         C         C         1.0       0.39982301987108215           0.9249915861425988 0.1985687017181343 1.0000   
         C         C         1.0       0.3994764201982398  0.9298411416884037  0.23927611740487476          1.0000   
         C         C         1.0       0.4064024066057083  0.9593439310579386  0.25594978644418936          1.0000   
         H         H         1.0       0.6243479541702267  0.9959220710400103  0.2884247083522017 1.0000   
         H         H         1.0       0.5363120457934824  0.03598923016244404           0.23764682560439357          1.0000   
         H         H         1.0       0.5644680511093251  0.08562620147036681           0.23083883224602814          1.0000   
         H         H         1.0       0.6456044125384561  0.04975228075470617           0.2914225039622962 1.0000   
         H         H         1.0       0.5815092552085344  0.9820220640766911  0.34688895505538686          1.0000   
         H         H         1.0       0.6179116379778348  0.945609170829444   0.3854601915872846 1.0000   
         H         H         1.0       0.5969590426668167  0.8740443832405256  0.30129463322951605          1.0000   
         H         H         1.0       0.567466959998676   0.915512361988543   0.25668677813657775          1.0000   
         H         H         1.0       0.5123461179349179  0.9286249179294536  0.25119842062624004          1.0000   
         H         H         1.0       0.46047755693729203           0.9224495883283992 0.266793022219138  1.0000   
         H         H         1.0       0.46082117374908477           0.014738416922745134         0.3220762646552473 1.0000   
         H         H         1.0       0.5185609652575334  0.016703046017760403         0.30911354444494415          1.0000   
         H         H         1.0       0.393577270313365   0.04779182512555269           0.39698496864942684          1.0000   
         H         H         1.0       0.42583325840950353           0.005963969964295046         0.36975074496478566          1.0000   
         H         H         1.0       0.3520947027317657  0.981232790392246   0.28483753308029247          1.0000   
         H         H         1.0       0.32845206540385813           0.031940325323746466         0.2947610363044677 1.0000   
         H         H         1.0       0.45022995123552617           0.9444258926572092 0.3705547755502533 1.0000   
         H         H         1.0       0.4396127167026807  0.9041438454285274  0.4226854996429555 1.0000   
         H         H         1.0       0.3462019334061979  0.889713745142798   0.3692628313090266 1.0000   
         H         H         1.0       0.3622202403904469  0.9282115669292804  0.3117331134598854 1.0000   
         H         H         1.0       0.4119404688998292  0.007993884397072826         0.24396695241160302          1.0000   
         H         H         1.0       0.41083630080819805           0.00036008826065847543       0.17074375027790134          1.0000   
         H         H         1.0       0.39556391470166824           0.9015758830484387 0.1840207622928828 1.0000   
         H         H         1.0       0.3894608814698698  0.9116924319021359  0.2557020491346403 1.0000   
         C         C         1.0       0.1398636478108799  0.63272302798978    0.5668916528771931 1.0000   
         C         C         1.0       0.16361073569379544           0.6285461107132998 0.5399224011810876 1.0000   
         C         C         1.0       0.18013473197008814           0.6524346777869103 0.5276538294671484 1.0000   
         C         C         1.0       0.1717832051540334  0.6835845351381561  0.5410247752573564 1.0000   
         C         C         1.0       0.14654886187543692           0.6886424441042316 0.5661733057950715 1.0000   
         C         C         1.0       0.13307039839049817           0.6620403602943746 0.5813103605313381 1.0000   
         H         H         1.0       0.1721786879801308  0.6058682674418432  0.5331799754738771 1.0000   
         H         H         1.0       0.19583959607523266           0.647779941764857  0.5035302069798713 1.0000   
         H         H         1.0       0.14050649677399488           0.711884946361873  0.5768449708899686 1.0000   
         H         H         1.0       0.11517915343033815           0.6629962923537366 0.6028149900795167 1.0000   
         C         C         1.0       0.19937015625494822           0.7392613378392574 0.5908520527816697 1.0000   
         C         C         1.0       0.1921434386102742  0.7421609639211164  0.5496511687677407 1.0000   
         C         C         1.0       0.19673527362380755           0.7719714385825981 0.5313603668113882 1.0000   
         C         C         1.0       0.2074031901011781  0.796020667120732   0.5550504036853598 1.0000   
         C         C         1.0       0.217818572333696   0.7918748059130258  0.5956410057589963 1.0000   
         C         C         1.0       0.2109825884879235  0.7642497936069926  0.614677308768275  1.0000   
         C         C         1.0       0.18883001095930627           0.7121496261529924 0.51948867951996   1.0000   
         C         C         1.0       0.16400305766371742           0.716159296882612  0.4805582132860383 1.0000   
         C         C         1.0       0.1402420585831301  0.7387967864501823  0.4790080084371413 1.0000   
         C         C         1.0       0.11656230463817095           0.7382680101560257 0.44838403103012997          1.0000   
         C         C         1.0       0.11654346700314468           0.7166201769030213 0.4167058023528468 1.0000   
         C         C         1.0       0.14104671898988141           0.6946798065383429 0.41930909146364087          1.0000   
         C         C         1.0       0.1662127385380714  0.6956619722084374  0.4475001239348619 1.0000   
         C         C         1.0       0.24721599450813714           0.6918722677068609 0.5360981233878516 1.0000   
         C         C         1.0       0.2799448328518406  0.6949914959407947  0.5331823119690662 1.0000   
         C         C         1.0       0.2930488436154561  0.7089064586041449  0.5000281000842495 1.0000   
         C         C         1.0       0.2717685802047697  0.7160928303517092  0.46751832073297345          1.0000   
         C         C         1.0       0.23880803147974217           0.7154431760121155 0.4720715369848904 1.0000   
         C         C         1.0       0.22566474621341528           0.7043639981489928 0.506835467366387  1.0000   
         C         C         1.0       0.3283298712126909  0.7245959290445695  0.5034430805535739 1.0000   
         C         C         1.0       0.3136173204464224  0.8189368768492982  0.5531453719536746 1.0000   
         C         C         1.0       0.3078402233212157  0.7934245758335022  0.576676786295835  1.0000   
         C         C         1.0       0.31136446851591604           0.7641274857908734 0.5591310201132877 1.0000   
         C         C         1.0       0.32018163083950774           0.7596163975218972 0.5176217273901687 1.0000   
         C         C         1.0       0.3221156442172487  0.7869480732509186  0.49494795324633595          1.0000   
         C         C         1.0       0.316717253622004   0.8158761930284563  0.5116894041047503 1.0000   
         C         C         1.0       0.3507812334237866  0.719562735305693   0.46639791631351424          1.0000   
         C         C         1.0       0.34791630188084594           0.6927729656639694 0.44425511583553984          1.0000   
         C         C         1.0       0.3722382638106333  0.6824345197893377  0.41978295227592494          1.0000   
         C         C         1.0       0.3998626407658367  0.6998942428916679  0.41701654767743307          1.0000   
         C         C         1.0       0.4016738095484398  0.7307422099052276  0.433318647326012  1.0000   
         C         C         1.0       0.37757418473814525           0.7395195302493556 0.45914323145783553          1.0000   
         C         C         1.0       0.3753128084893878  0.7293764204629292  0.5604925884061392 1.0000   
         C         C         1.0       0.3865591337446125  0.7172190949746127  0.5958523255396432 1.0000   
         C         C         1.0       0.3840879877100702  0.6873146432953661  0.6058044364941818 1.0000   
         C         C         1.0       0.36792979843428836           0.6673737210201772 0.5801218586307365 1.0000   
         C         C         1.0       0.3534505646239549  0.6779953640263885  0.5444552070805185 1.0000   
         C         C         1.0       0.3536359284182557  0.7099499158438567  0.5375722802466877 1.0000   
         H         H         1.0       0.19610327697973687           0.7168985044438145 0.6079875188619077 1.0000   
         H         H         1.0       0.19158489573930412           0.7730798517597347 0.49798850976194586          1.0000   
         H         H         1.0       0.2112553929193365  0.8186277272489091  0.5444830735722949 1.0000   
         H         H         1.0       0.21665046864530987           0.7620790971350228 0.6483750301317293 1.0000   
         H         H         1.0       0.13392972987028218           0.7530813497570323 0.5031390818542152 1.0000   
         H         H         1.0       0.09981721966895286           0.7577758380059236 0.4477981088280752 1.0000   
         H         H         1.0       0.14123615985395044           0.6752113693747772 0.39872335854121915          1.0000   
         H         H         1.0       0.18603009856408453           0.6782117715221895 0.44534200681627495          1.0000   
         H         H         1.0       0.2371121032210497  0.6833386408488183  0.5627516525320715 1.0000   
         H         H         1.0       0.29450282205316203           0.690636400842912  0.5596235792084777 1.0000   
         H         H         1.0       0.27946615751195847           0.7264966814539803 0.4387154478311159 1.0000   
         H         H         1.0       0.2238365094967098  0.7277305144257551  0.4494280271102553 1.0000   
         H         H         1.0       0.3073434044044368  0.7964553881869174  0.6094358158801108 1.0000   
         H         H         1.0       0.3087391439886762  0.7438758803335835  0.577037497330388  1.0000   
         H         H         1.0       0.32882328171113007           0.785221298632198  0.46283788800407355          1.0000   
         H         H         1.0       0.325064317465661   0.8369536678282363  0.4939536575598445 1.0000   
         H         H         1.0       0.326157441901898   0.6791922261980846  0.4480892080754139 1.0000   
         H         H         1.0       0.3717577474923743  0.6569248481164245  0.4121986172383346 1.0000   
         H         H         1.0       0.4224384123560032  0.7448384973319763  0.43250770963208013          1.0000   
         H         H         1.0       0.3818786377724661  0.7612352245501859  0.4776016128799221 1.0000   
         H         H         1.0       0.37460022856840036           0.7539469098564106 0.5519792758045551 1.0000   
         H         H         1.0       0.3990608180821237  0.7303302974197527  0.6184682674501257 1.0000   
         H         H         1.0       0.3709831881265078  0.14550241575527334           0.6211645940724831 1.0000   
         H         H         1.0       0.33532522807323206           0.6647113151550008 0.5276457831728832 1.0000   
         C         C         1.0       0.5029472441388481  0.7153399962306954  0.9179343730278426 1.0000   
         C         C         1.0       0.5250743048800046  0.7083540618255844  0.8895998017500995 1.0000   
         C         C         1.0       0.5163399382975518  0.6997671413511395  0.8509826892987171 1.0000   
         C         C         1.0       0.48384203471292037           0.6953108194460036 0.8379706062954684 1.0000   
         C         C         1.0       0.460747079608887   0.7008739129873486  0.8688719301063603 1.0000   
         C         C         1.0       0.47143801047561634           0.7108153016961887 0.9074802840578983 1.0000   
         H         H         1.0       0.5498224697273181  0.7086812035231411  0.8992853842431491 1.0000   
         H         H         1.0       0.5364017483376728  0.7005205669178456  0.8335312754143765 1.0000   
         H         H         1.0       0.4346644502681739  0.6995182930734052  0.8618330874257304 1.0000   
         H         H         1.0       0.4554202737442655  0.715178736064938   0.9315975013614561 1.0000   
         C         C         1.0       0.4549390126974343  0.6361205638582228  0.8072007600733115 1.0000   
         C         C         1.0       0.44832247034700073           0.6638438799679282 0.7843311303663687 1.0000   
         C         C         1.0       0.4273835810136723  0.6622389665262216  0.7515232706702517 1.0000   
         C         C         1.0       0.4091559590061925  0.6355869540684905  0.7424810572916424 1.0000   
         C         C         1.0       0.4146370186491204  0.6091980944412232  0.7652740439087854 1.0000   
         C         C         1.0       0.43570116130121905           0.610742834148045  0.7995706450041723 1.0000   
         C         C         1.0       0.4710895190478605  0.6928194505459448  0.7900899421913115 1.0000   
         C         C         1.0       0.49831283263267595           0.6879645125332903 0.7542859761987112 1.0000   
         C         C         1.0       0.49046823552737584           0.7000404905574465 0.7167377035056188 1.0000   
         C         C         1.0       0.510031768310011   0.6964716996674927  0.6825063440060194 1.0000   
         C         C         1.0       0.5367856066165699  0.6771568230254046  0.6835003813941731 1.0000   
         C         C         1.0       0.5461792307445498  0.6662279575154626  0.722319522276936  1.0000   
         C         C         1.0       0.5271335642111143  0.6705022179377124  0.7568565043934633 1.0000   
         C         C         1.0       0.42484068146346393           0.7363440179676909 0.7761814425448782 1.0000   
         C         C         1.0       0.4182922290432152  0.7643436917712865  0.7571320309002981 1.0000   
         C         C         1.0       0.4424508622596454  0.7869136771427179  0.7554694337156163 1.0000   
         C         C         1.0       0.4723831127216553  0.7821598356024824  0.7777771140317027 1.0000   
         C         C         1.0       0.4787399168932394  0.7533825920343057  0.7912540482547206 1.0000   
         C         C         1.0       0.4566207611492971  0.7292902059549017  0.7868125791970505 1.0000   
         C         C         1.0       0.43926084707179064           0.8185600143790969 0.7286745467193415 1.0000   
         C         C         1.0       0.3809823403281282  0.8348414282066237  0.6192523442819128 1.0000   
         C         C         1.0       0.3951110968775243  0.8588041423822351  0.641783242859618  1.0000   
         C         C         1.0       0.41035347290617824           0.8538795112959248 0.678055445268864  1.0000   
         C         C         1.0       0.414469574848314   0.82363082080593    0.6915728106415309 1.0000   
         C         C         1.0       0.4011723045854909  0.7996144577661213  0.6679813527842478 1.0000   
         C         C         1.0       0.38414787663590544           0.8045728071785739 0.6330145184802863 1.0000   
         C         C         1.0       0.4731348392108966  0.8229586379625105  0.7026241156849289 1.0000   
         C         C         1.0       0.4815053033612529  0.7964906581053818  0.6804464476475712 1.0000   
         C         C         1.0       0.5114798744452942  0.7940840583584736  0.662520111038499  1.0000   
         C         C         1.0       0.5313902909605256  0.8182824657719283  0.6624231121598931 1.0000   
         C         C         1.0       0.5196499655211442  0.8475830899948685  0.680146275374044  1.0000   
         C         C         1.0       0.49218970137849205           0.8500934576185765 0.6992032188536261 1.0000   
         C         C         1.0       0.45644547455552387           0.8620388941229683 0.7827032470602618 1.0000   
         C         C         1.0       0.44838968033598353           0.885591534404239  0.8119377907646496 1.0000   
         C         C         1.0       0.4164089959484668  0.8895132169137995  0.8234500910472067 1.0000   
         C         C         1.0       0.39311520788865534           0.8688924778026975 0.8093917090072738 1.0000   
         C         C         1.0       0.40139584560830716           0.8462072210241239 0.7793116689063838 1.0000   
         C         C         1.0       0.4319735049971211  0.844773124631779   0.7636179015409653 1.0000   
         H         H         1.0       0.47359294006192665           0.6352895141954057 0.8296761453230704 1.0000   
         H         H         1.0       0.4272958411333551  0.6838400675834999  0.7330491201539943 1.0000   
         H         H         1.0       0.3902686890571299  0.6359518473429021  0.7218813037212773 1.0000   
         H         H         1.0       0.4396462723574591  0.5901443636020812  0.8190648616770654 1.0000   
         H         H         1.0       0.4672044830464068  0.7117190663604749  0.7146627363044775 1.0000   
         H         H         1.0       0.5005024589417482  0.7067250221698281  0.6550724214535609 1.0000   
         H         H         1.0       0.568456294056785   0.6524407480774601  0.7250339046752651 1.0000   
         H         H         1.0       0.5371477196343342  0.6628801774801525  0.7858453187292167 1.0000   
         H         H         1.0       0.4062156143090559  0.720057183262693   0.7778459078871068 1.0000   
         H         H         1.0       0.39441533515407223           0.7679299265566286 0.7458313444086672 1.0000   
         H         H         1.0       0.4919284075214551  0.7974614952446741  0.7741309467267272 1.0000   
         H         H         1.0       0.5018681509294595  0.7524897832123878  0.8063834280791047 1.0000   
         H         H         1.0       0.3929792858234591  0.8830887651102036  0.6312330287874964 1.0000   
         H         H         1.0       0.41869566765181737           0.8730514145751791 0.6954604645541458 1.0000   
         H         H         1.0       0.4047098427280234  0.7751816226184729  0.6754732154073808 1.0000   
         H         H         1.0       0.37539155552902875           0.7840562312858458 0.6140982487244403 1.0000   
         H         H         1.0       0.46974107537901966           0.7726482183671199 0.6787003573169156 1.0000   
         H         H         1.0       0.518294527304988   0.7707943609865628  0.6501634111531702 1.0000   
         H         H         1.0       0.5367128844666108  0.8657787895436576  0.6741977621593384 1.0000   
         H         H         1.0       0.48342532205554517           0.8730573313461547 0.7095171020319626 1.0000   
         H         H         1.0       0.48254429687962896           0.858371009296866  0.7791103970356412 1.0000   
         H         H         1.0       0.4688890662834205  0.9005696266902699  0.8200412716231753 1.0000   
         H         H         1.0       0.36807526870618773           0.8708820176728328 0.8142521328915507 1.0000   
         H         H         1.0       0.38240931317792376           0.831103526153491  0.7668026621164964 1.0000   
         C         C         1.0       0.2709200665598712  0.03445268087769793           0.8732442245988663 1.0000   
         C         C         1.0       0.24395295157861807           0.049361722908058736         0.8579646614011159 1.0000   
         C         C         1.0       0.24376578557755565           0.06501917271604274          0.8222315091545879 1.0000   
         C         C         1.0       0.271252491338176   0.06329851086925209           0.7964795841653592 1.0000   
         C         C         1.0       0.297857575149708   0.04541275546395096           0.8124887944241818 1.0000   
         C         C         1.0       0.29759859559732094           0.03278876962452548          0.8512397564853197 1.0000   
         H         H         1.0       0.22384800435769583           0.050928762250763704         0.8793256499937575 1.0000   
         H         H         1.0       0.2242392167368492  0.08078112734540377           0.8101634784237108 1.0000   
         H         H         1.0       0.32078297627780633           0.042126369066828095         0.7984482975811946 1.0000   
         H         H         1.0       0.31952784441385335           0.018965267653809903         0.8606633590845204 1.0000   
         C         C         1.0       0.32191223751851317           0.11220346827436067          0.7772202767465454 1.0000   
         C         C         1.0       0.30347523993247094           0.09929269527287365          0.7442854764752563 1.0000   
         C         C         1.0       0.30737099111950505           0.11094223197272579          0.7056576385324864 1.0000   
         C         C         1.0       0.3308454887804412  0.13264186462633498           0.6995024627893088 1.0000   
         C         C         1.0       0.3524478033734671  0.14258580025994094           0.7304757207032891 1.0000   
         C         C         1.0       0.346140020148096   0.13321625256812353           0.7700600553815791 1.0000   
         C         C         1.0       0.2749696446237624  0.07471308701757207           0.7503804792309129 1.0000   
         C         C         1.0       0.24394440806338327           0.09420391883376178          0.7366452515236875 1.0000   
         C         C         1.0       0.2268537442485764  0.08613079379442579           0.7006988767874303 1.0000   
         C         C         1.0       0.2008637348084247  0.10238279526972738           0.6866041238093009 1.0000   
         C         C         1.0       0.19136298074925553           0.13029258934110421          0.7073374551475365 1.0000   
         C         C         1.0       0.20903955376142894           0.13921907948263357          0.7415958587049227 1.0000   
         C         C         1.0       0.23558047007507568           0.12158193978811815          0.7555454224379753 1.0000   
         C         C         1.0       0.3071288577166796  0.03336679041391988           0.7060093891954344 1.0000   
         C         C         1.0       0.31296158407101876           0.003506131685683256         0.6933244622164676 1.0000   
         C         C         1.0       0.29014883444413    0.9801176804620801  0.6968424759805687 1.0000   
         C         C         1.0       0.2623791533513985  0.9872158593915498  0.7161486016317336 1.0000   
         C         C         1.0       0.25607349456700784           0.017546256201113275         0.7298129036955053 1.0000   
         C         C         1.0       0.2787022555871162  0.041953846210569745         0.7261333010669354 1.0000   
         C         C         1.0       0.30070019710737356           0.9458308497467642 0.6806667076148827 1.0000   
         C         C         1.0       0.3204472167678332  0.950485293681529   0.5485917412575035 1.0000   
         C         C         1.0       0.33762817647823445           0.9308076606260733 0.5731104558242481 1.0000   
         C         C         1.0       0.32966583830183915           0.9274520420142025 0.6145200853723245 1.0000   
         C         C         1.0       0.30628309030652684           0.9464340429376158 0.6320601927004615 1.0000   
         C         C         1.0       0.2900585876038916  0.9670251815571914  0.6053676526501499 1.0000   
         C         C         1.0       0.2966274553826137  0.9689806955478059  0.5658086146856401 1.0000   
         C         C         1.0       0.2753199510364827  0.9177348923556039  0.677956735071595  1.0000   
         C         C         1.0       0.2834436532005708  0.8858881276879031  0.6864415479321301 1.0000   
         C         C         1.0       0.26212990129475344           0.8631214640666319 0.6801383038457816 1.0000   
         C         C         1.0       0.23164864365501958           0.869607939849463  0.663238823248665  1.0000   
         C         C         1.0       0.22278370063513814           0.8994155901331617 0.654501666818396  1.0000   
         C         C         1.0       0.24369166191045993           0.922758439274859  0.6648563225320316 1.0000   
         C         C         1.0       0.3194991637208089  0.9340598372131091  0.7551511699290264 1.0000   
         C         C         1.0       0.3428106464601395  0.9378796462282903  0.7859326817737465 1.0000   
         C         C         1.0       0.3748768487276041  0.9435914965976957  0.777410571483077  1.0000   
         C         C         1.0       0.38235037105257136           0.9463128482493024 0.7372546233935825 1.0000   
         C         C         1.0       0.35838435015521686           0.9434306778490144 0.7065007462413191 1.0000   
         C         C         1.0       0.3271757960433583  0.9377780178341828  0.7150592278345135 1.0000   
         H         H         1.0       0.31977661382206735           0.10504446691882552          0.8086474751699582 1.0000   
         H         H         1.0       0.2913778341603008  0.10325357584908312           0.6787622511667623 1.0000   
         H         H         1.0       0.3360306983661563  0.14196820594419424           0.6706985958093197 1.0000   
         H         H         1.0       0.3596874300424581  0.14489405195379135           0.7966207988176086 1.0000   
         H         H         1.0       0.23111878996888416           0.06468740241351134          0.681792633773737  1.0000   
         H         H         1.0       0.1884203553410206  0.09310412348580699           0.661037205294992  1.0000   
         H         H         1.0       0.20399192424914753           0.16037307634801867          0.759284583464971  1.0000   
         H         H         1.0       0.25074598030861284           0.12857851380749152          0.7814415332945573 1.0000   
         H         H         1.0       0.3272673561219707  0.04923043888415024           0.7108641429116855 1.0000   
         H         H         1.0       0.3351959673832844  0.9986994350637582  0.6772976579939132 1.0000   
         H         H         1.0       0.2458141327130091  0.9684845636622591  0.722100911748597  1.0000   
         H         H         1.0       0.23332832178323742           0.023485649889586124         0.7419645491522207 1.0000   
         H         H         1.0       0.3554003315936836  0.91553614292107    0.5602624606789087 1.0000   
         H         H         1.0       0.34552833408429195           0.9118280607214626 0.6301493090198067 1.0000   
         H         H         1.0       0.27192247758671284           0.9829981593626439 0.61775727519836   1.0000   
         H         H         1.0       0.2844045378096608  0.9846209767971444  0.5446267409349086 1.0000   
         H         H         1.0       0.30827757657041094           0.8768213736050721 0.6942895711094955 1.0000   
         H         H         1.0       0.2688183736057704  0.8384736689033084  0.6870153485235548 1.0000   
         H         H         1.0       0.19872854463365242           0.9073272675210584 0.6456760119267361 1.0000   
         H         H         1.0       0.2337970509224753  0.9450699250284585  0.6563113488294429 1.0000   
         H         H         1.0       0.29440925953224173           0.9315994141524794 0.7621178594309427 1.0000   
         H         H         1.0       0.3375646836667685  0.9362196597365336  0.8173444677878313 1.0000   
         H         H         1.0       0.4055806119504225  0.9551840437794701  0.7303994386103482 1.0000   
         H         H         1.0       0.36480335759310745           0.9477802399989476 0.6755554834668644 1.0000   
         C         C         1.0       0.6141922217113037  0.02565649182755103           0.5905736345824129 1.0000   
         C         C         1.0       0.6084046947247653  0.027102786299524118         0.5481317786883388 1.0000   
         C         C         1.0       0.593256556699193   0.002445382696032228         0.5282119650683467 1.0000   
         C         C         1.0       0.5820813362137078  0.975679343417357   0.548629620586508  1.0000   
         C         C         1.0       0.5867423142442532  0.975949018919765   0.589637793333809  1.0000   
         C         C         1.0       0.6023844715557245  0.0012452238789371073        0.611317404406954  1.0000   
         H         H         1.0       0.6156015403826621  0.04510665022603577           0.5288446458407906 1.0000   
         H         H         1.0       0.5904896900522733  0.00420656268288    0.495770646537892  1.0000   
         H         H         1.0       0.5761201389791665  0.9580513557811992  0.6080704310682238 1.0000   
         H         H         1.0       0.6052821115850793  0.0001357408936188964        0.6433404525724492 1.0000   
         C         C         1.0       0.5863554997828871  0.9010002590133509  0.5736129362819687 1.0000   
         C         C         1.0       0.5605897448252766  0.9137980267032807  0.5534381858967284 1.0000   
         C         C         1.0       0.5315503727742555  0.8959897785876805  0.5505639931646278 1.0000   
         C         C         1.0       0.5316923697931905  0.8661219556641567  0.5672456591713178 1.0000   
         C         C         1.0       0.558627758056131   0.8520164509710642  0.5839804127373532 1.0000   
         C         C         1.0       0.5849632069353533  0.8705858056221705  0.5892235395423213 1.0000   
         C         C         1.0       0.5638835069738987  0.9454549496730047  0.5290367974512    1.0000   
         C         C         1.0       0.5809611587902067  0.9288335730105375  0.4906285887030998 1.0000   
         C         C         1.0       0.56136534658087    0.910712109771895   0.46344478660096733          1.0000   
         C         C         1.0       0.5763460314723478  0.8898787494645378  0.4369455421175767 1.0000   
         C         C         1.0       0.6093926103068301  0.8867637779862445  0.4353190881506314 1.0000   
         C         C         1.0       0.6288135453448497  0.9060134538636884  0.4608562112196681 1.0000   
         C         C         1.0       0.6145842249690653  0.9269711792660855  0.48797739997292344          1.0000   
         C         C         1.0       0.5096029754892121  0.9684162491459015  0.547797286986681  1.0000   
         C         C         1.0       0.4861274552018368  0.9907887616787712  0.5406695721031362 1.0000   
         C         C         1.0       0.4825625039907126  0.007414962301673711         0.5036812692854288 1.0000   
         C         C         1.0       0.501290728941352   0.9977325514927652  0.4718446215377756 1.0000   
         C         C         1.0       0.5264570214935479  0.9772219353351962  0.48047310959851863          1.0000   
         C         C         1.0       0.5315513365621832  0.9631262163719648  0.5190203486206578 1.0000   
         C         C         1.0       0.45807946146079    0.03771166047336383           0.5035586612289867 1.0000   
         C         C         1.0       0.3670892976506462  0.9903606871060997  0.4902410060521554 1.0000   
         C         C         1.0       0.37485809897431993           0.0077065170236687575        0.5258948663468951 1.0000   
         C         C         1.0       0.40428761112637585           0.02023175651050857          0.531607435227173  1.0000   
         C         C         1.0       0.4268082416100197  0.01700976820701161           0.5021020987785919 1.0000   
         C         C         1.0       0.41891422419442664           0.0004987927859885222        0.46671321803384647          1.0000   
         C         C         1.0       0.38845714515965285           0.9874834836517544 0.4596979899615484 1.0000   
         C         C         1.0       0.4612975941288078  0.0611843071352316  0.46739866569936   1.0000   
         C         C         1.0       0.49293113387337056           0.07126400262857024          0.4579345177013786 1.0000   
         C         C         1.0       0.4949022812433803  0.09844294308357293           0.4345529349349879 1.0000   
         C         C         1.0       0.4674183840050154  0.11464810226480138           0.4215703754904978 1.0000   
         C         C         1.0       0.43736670786340975           0.10230906274860097          0.4242299708550625 1.0000   
         C         C         1.0       0.4350895268719201  0.07603726144426215           0.4471814989870107 1.0000   
         C         C         1.0       0.44281050657373056           0.0863018396803299 0.550513424893541  1.0000   
         C         C         1.0       0.45226563379177176           0.11329089638289669          0.5708723185701449 1.0000   
         C         C         1.0       0.4824016700394691  0.1157370871097414  0.5857690841539382 1.0000   
         C         C         1.0       0.5034630868393722  0.09100293372351054           0.5833083389310867 1.0000   
         C         C         1.0       0.49652341655254    0.06472860407416858           0.5596712463313769 1.0000   
         C         C         1.0       0.46520421935155537           0.06268181288646124          0.5408074541415472 1.0000   
         H         H         1.0       0.6082952382602929  0.9137832346942822  0.5757502191387861 1.0000   
         H         H         1.0       0.5096434173813243  0.9052456574929395  0.5346193007428571 1.0000   
         H         H         1.0       0.5088116625158954  0.8548440627567582  0.5655390683822852 1.0000   
         H         H         1.0       0.6089019638048513  0.8602053359816823  0.5998065588515246 1.0000   
         H         H         1.0       0.5355163060749378  0.9104249458727064  0.4617026589923862 1.0000   
         H         H         1.0       0.5626827424779498  0.8746527270085394  0.4171373370220807 1.0000   
         H         H         1.0       0.6543203003345296  0.9071275731920551  0.4555905182405479 1.0000   
         H         H         1.0       0.6320376622280909  0.9426089141916116  0.5044542372017009 1.0000   
         H         H         1.0       0.514484801815128   0.9616438582634488  0.5786247298266974 1.0000   
         H         H         1.0       0.470433689288774   0.9981265661953321  0.5669452353386242 1.0000   
         H         H         1.0       0.4999712222061205  0.011962842938612717         0.44619415320881756          1.0000   
         H         H         1.0       0.5430850778767394  0.9718220091054269  0.4578732516821456 1.0000   
         H         H         1.0       0.35768900741899    0.0140541450467071  0.5478473168320441 1.0000   
         H         H         1.0       0.40892687245574255           0.0345067973707649 0.5582832821874638 1.0000   
         H         H         1.0       0.4369249735904701  0.9973914923114697  0.4430823292905597 1.0000   
         H         H         1.0       0.3840424272783316  0.9724859157003044  0.43174562864059174          1.0000   
         H         H         1.0       0.5154166781692577  0.06238417583901046           0.4694595075377936 1.0000   
         H         H         1.0       0.4896594169021156  0.6743732980906142  0.5146281211658635 1.0000   
         H         H         1.0       0.41640150375479984           0.11214921537740041          0.4104687194508162 1.0000   
         H         H         1.0       0.4137981692899     0.0664924580620756  0.4532185854538405 1.0000   
         H         H         1.0       0.42025658907931784           0.08640773642345922          0.5336144417621975 1.0000   
         H         H         1.0       0.43723536935032514           0.1311341465517426 0.5818461449129182 1.0000   
         H         H         1.0       0.52704178662978    0.09109314714803074           0.598242411420585  1.0000   
         H         H         1.0       0.5145453554485353  0.04779660574767952           0.5532693057526845 1.0000   
         C         C         1.0       0.32334392311437604           0.9474478378513992 0.5029188213767474 1.0000   
         C         C         1.0       0.3325165259965652  0.9783405770436393  0.4830591261505585 1.0000   
         H         H         1.0       0.33957116569140744           0.9277464965525817 0.4968139188897762 1.0000   
         H         H         1.0       0.2994504741502464  0.9405594277962728  0.48878527464986654          1.0000   
         H         H         1.0       0.31555998428620274           0.9970106490331397 0.49152657775913666          1.0000   
         H         H         1.0       0.3268514643268559  0.9775735016867236  0.4501369363040947 1.0000   
         C         C         1.0       0.40763899091042033           0.9206253915170068 0.8419085173069573 1.0000   
         C         C         1.0       0.40205906650556933           0.9477532693838863 0.8105282176993286 1.0000   
         H         H         1.0       0.4266407720322115  0.9281146145863061  0.8637207252090169 1.0000   
         H         H         1.0       0.3867916223914915  0.9166603375895531  0.8633946660961876 1.0000   
         H         H         1.0       0.4242451293132122  0.9538707667356017  0.795473808971338  1.0000   
         H         H         1.0       0.3987213426614338  0.9689097899045053  0.828318638906325  1.0000   
         C         C         1.0       0.5649924360080075  0.8145699102250936  0.644112676932763  1.0000   
         C         C         1.0       0.5613302588056013  0.8183769228342304  0.5978059289140146 1.0000   
         H         H         1.0       0.5798917621654665  0.8328045786623995  0.6566559916186899 1.0000   
         H         H         1.0       0.5762062012487943  0.7909583376388989  0.6476233478833878 1.0000   
         H         H         1.0       0.5383300174052876  0.8058578365068193  0.5869293466581278 1.0000   
         H         H         1.0       0.5825346355327726  0.8068970480728637  0.5808555348105428 1.0000   
         C         C         1.0       0.41436955486867716           0.5599104908498438 0.7198983238391008 1.0000   
         C         C         1.0       0.39571386385552376           0.5789217134890697 0.752735298319884  1.0000   
         H         H         1.0       0.40232225558694196           0.5386900335521568 0.7181216449790143 1.0000   
         H         H         1.0       0.43764253818270427           0.5524184949306064 0.7350278122485131 1.0000   
         H         H         1.0       0.37185186575691076           0.5829389474788664 0.7372848159813262 1.0000   
         H         H         1.0       0.3916564930335661  0.5652154167350605  0.779531290115222  1.0000   
         C         C         1.0       0.4789572307350197  0.17481047807749928           0.41408687250500026          1.0000   
         C         C         1.0       0.4546045862898481  0.6822601803131922  0.4458862298079546 1.0000   
         H         H         1.0       0.48032885890905624           0.19525069314999133          0.39342710591322233          1.0000   
         H         H         1.0       0.4430941000332918  0.6986709062043739  0.38881333191809264          1.0000   
         H         H         1.0       0.4566703412491852  0.7053984263478423  0.46304176286149257          1.0000   
         H         H         1.0       0.477896413375132   0.675415904366962   0.4341704189554476 1.0000   
         C         C         1.0       0.2123017895867973  0.8395723089861826  0.6520488506384894 1.0000   
         C         C         1.0       0.23160059299422933           0.8192959600022527 0.6186392452303757 1.0000   
         H         H         1.0       0.1878495840990362  0.8459696848328123  0.6401353668336467 1.0000   
         H         H         1.0       0.20590062400567435           0.8231260095281222 0.6777818272671721 1.0000   
         H         H         1.0       0.25334856940631445           0.8085706103177325 0.6338592928022153 1.0000   
         H         H         1.0       0.23986070715876906           0.8377150914348469 0.5956445152688392 1.0000   
         C         C         1.0       0.4058527576329183  0.1546385655839131  0.6860950192163991 1.0000   
         C         C         1.0       0.3805699988353636  0.16406866802567444           0.7196864088390559 1.0000   
         H         H         1.0       0.40298077089258255           0.12951103290399457          0.6782139726710407 1.0000   
         H         H         1.0       0.42847447339804023           0.1577843219908166 0.7027518109810252 1.0000   
         H         H         1.0       0.36741676886381885           0.18749422430187712          0.7152556456433797 1.0000   
         H         H         1.0       0.39609897929090543           0.16497394575693347          0.7482959086316636 1.0000   
         C         C         1.0       0.3272289730795554  0.846865562877364   0.5758761535181194 1.0000   
         C         C         1.0       0.3644654706160091  0.8426251852816056  0.5784803020413826 1.0000   
         H         H         1.0       0.31822605665090875           0.8548472711582783 0.6054368582798322 1.0000   
         H         H         1.0       0.32372265282714974           0.8681208066612777 0.5568692639664962 1.0000   
         H         H         1.0       0.37710428784385125           0.8622426219331993 0.5661149208937846 1.0000   
         H         H         1.0       0.3725858832972364  0.8238117958530946  0.5572360558193399 1.0000   
         C         C         1.0       0.6359689286319706  0.88672796363161    0.36771546728563004          1.0000   
         C         C         1.0       0.6238363476114378  0.8657424693015239  0.4027333447428422 1.0000   
         H         H         1.0       0.648158738595834   0.8697473227605677  0.34556152639299675          1.0000   
         H         H         1.0       0.6566966718629268  0.9017042948033009  0.37731954119874894          1.0000   
         H         H         1.0       0.6446939961336502  0.8533584505274515  0.4165066010603097 1.0000   
         H         H         1.0       0.6070058801434276  0.8456365488590744  0.3936839974323178 1.0000   
         C         C         1.0       0.2684838225423284  0.02053623059975762           0.9148129719819417 1.0000   
         C         C         1.0       0.26870327727395216           0.04442549594535383          0.9522877103252406 1.0000   
         H         H         1.0       0.24804055352179832           0.005628995447505725         0.9180305094569868 1.0000   
         H         H         1.0       0.2869643879025042  0.0027628476803052138        0.9217733723432866 1.0000   
         H         H         1.0       0.25392000933028425           0.06613573220888824          0.9451756788090979 1.0000   
         H         H         1.0       0.29319770587651944           0.05515640891965834          0.9540559578939191 1.0000   
         C         C         1.0       0.35539731018180626           0.10105510051298561          0.33003780451049747          1.0000   
         C         C         1.0       0.3394414924894688  0.0745263116246242  0.3550836372012369 1.0000   
         H         H         1.0       0.3451937200493561  0.12422925852757172           0.340165962286017  1.0000   
         H         H         1.0       0.38191494982928703           0.10206846879858578          0.33829381863425406          1.0000   
         H         H         1.0       0.3148208895659529  0.07177065150424755           0.3451666269457555 1.0000   
         H         H         1.0       0.3404995993889675  0.07883964247962916           0.3875567843813953 1.0000   
         C         C         1.0       0.5126973370559474  0.7324217974021828  0.9599824091476027 1.0000   
         C         C         1.0       0.5151274069415329  0.7682212428386348  0.9569872884594345 1.0000   
         H         H         1.0       0.4957701671982124  0.7259262496183128  0.984838555511529  1.0000   
         H         H         1.0       0.5354103440431768  0.7233044580787844  0.9740215977017012 1.0000   
         H         H         1.0       0.49478811721558885           0.7772648251232195 0.9390177793557682 1.0000   
         H         H         1.0       0.5364147912229297  0.7739056701566459  0.9400058429850047 1.0000   
         C         C         1.0       0.44642150563544153           0.023730371549064877         0.053329067462882795         1.0000   
         C         C         1.0       0.47889615045395306           0.6586963237485033 0.022371313181447583         1.0000   
         H         H         1.0       0.4389276414180463  0.9996819111952445  0.04017219254748139          1.0000   
         H         H         1.0       0.46530648173720685           0.016360409864903724         0.07627899178792164          1.0000   
         H         H         1.0       0.46053946964409104           0.6687458850940028 0.00024185303942991787       1.0000   
         H         H         1.0       0.5010608674347795  0.6533637939156276  0.0055174943373055285        1.0000   
         C         C         1.0       0.639551289418008   0.10301136092716567           0.21697560950336303          1.0000   
         C         C         1.0       0.6195901254982104  0.10129382939049503           0.25647573201296847          1.0000   
         H         H         1.0       0.6579848958008945  0.12147690766485497           0.22066367032797587          1.0000   
         H         H         1.0       0.6555890268405054  0.08237826637815915           0.20896912784172886          1.0000   
         H         H         1.0       0.6011228415675031  0.11812310454796848           0.2628520784082219 1.0000   
         H         H         1.0       0.6379033345924325  0.10623307631404    0.2813126723344737 1.0000   
         C         C         1.0       0.411241072964094   0.9473596979070594  0.1288710782577103 1.0000   
         C         C         1.0       0.44711732478839417           0.9541828578385592 0.11881931216783603          1.0000   
         H         H         1.0       0.40536725550385316           0.924061460301438  0.11506502101626624          1.0000   
         H         H         1.0       0.3956427299129546  0.9675034193431604  0.1142546979917205 1.0000   
         H         H         1.0       0.4583891789679713  0.9728332531935321  0.13930272879920413          1.0000   
         H         H         1.0       0.44938706292037855           0.9637423467704451 0.08692169435062103          1.0000   
         C         C         1.0       0.09582544170503281           0.7033647028113912 0.34201475392995034          1.0000   
         C         C         1.0       0.0895229344657822  0.7196934427191356  0.38311122843258966          1.0000   
         H         H         1.0       0.07092653102907986           0.7025397562234285 0.32641059045459614          1.0000   
         H         H         1.0       0.10372020892697399           0.6773413940660982 0.34700857004510777          1.0000   
         H         H         1.0       0.08617362666999395           0.7462341567937905 0.3759482465023407 1.0000   
         H         H         1.0       0.06659135228378422           0.7108813227487181 0.39491771757664773          1.0000   
         C         C         1.0       0.3826012304431631  0.8787905155994926  0.43722936025023895          1.0000   
         C         C         1.0       0.38786490526261025           0.8427217147700958 0.441953422817371  1.0000   
         H         H         1.0       0.3946770176032043  0.8902989522140492  0.4646025225755562 1.0000   
         H         H         1.0       0.35588472932991955           0.8835314764051525 0.44128796159369205          1.0000   
         H         H         1.0       0.38013508051379136           0.8337309211414395 0.47036957148417674          1.0000   
         H         H         1.0       0.4148045025878217  0.8345031646967612  0.44348552189464685          1.0000   
         C         C         1.0       0.21585732014175235           0.6743605359309298 0.1118726252685669 1.0000   
         C         C         1.0       0.24572338345960631           0.6858909887415949 0.09147835139393545          1.0000   
         H         H         1.0       0.22209034459529778           0.6513543993356391 0.12251620724138011          1.0000   
         H         H         1.0       0.1977354272781621  0.6689563730408475  0.08663136220799705          1.0000   
         H         H         1.0       0.23990948166012027           0.6882394794510729 0.05761783732893444          1.0000   
         H         H         1.0       0.2536851732939318  0.7090360097531455  0.10191950810587702          1.0000   
         C         C         1.0       0.3250259619966576  0.8733650040266077  0.1598497419939477 1.0000   
         C         C         1.0       0.28796130362308076           0.8703391891751276 0.15142028255659978          1.0000   
         H         H         1.0       0.3353749693376754  0.8968039805272555  0.1580204408470737 1.0000   
         H         H         1.0       0.3368645889666944  0.861830462481682   0.13164377942237493          1.0000   
         H         H         1.0       0.28537016390840614           0.8541775409240907 0.12540247063925025          1.0000   
         H         H         1.0       0.27560401977202215           0.8586961886706388 0.1756109237384622 1.0000   
         C         C         1.0       0.3637252576978249  0.6554824300364165  0.2670535348954264 1.0000   
         C         C         1.0       0.3983398209574424  0.6576379829406952  0.2839122804166134 1.0000   
         H         H         1.0       0.3652456315012493  0.6490801409065292  0.2342747758836676 1.0000   
         H         H         1.0       0.3521294828881641  0.6357599773459334  0.28213248402871827          1.0000   
         H         H         1.0       0.40930743251260254           0.6337480241906878 0.28482105072673397          1.0000   
         H         H         1.0       0.3998234971683321  0.665550403591955   0.317664938433811  1.0000   
         C         C         1.0       0.13044726046147037           0.13333099414668692          0.7210042565314879 1.0000   
         C         C         1.0       0.15891552514311783           0.14572090435445562          0.6957468271155554 1.0000   
         H         H         1.0       0.10678829654266941           0.14336830328144168          0.7072724084194095 1.0000   
         H         H         1.0       0.13569011599553127           0.1412525341105637 0.7526381102036629 1.0000   
         H         H         1.0       0.1522237562559794  0.14623431440457635           0.6632507477810412 1.0000   
         H         H         1.0       0.16357144076271846           0.17198422632776333          0.6984143693383164 1.0000   
         C         C         1.0       0.6662599361905954  0.04159573072582723           0.6285724126316659 1.0000   
         C         C         1.0       0.6316573505110411  0.05065836479053498           0.6124791042271479 1.0000   
         H         H         1.0       0.6673938011886075  0.01632010739608525           0.6320767853988339 1.0000   
         H         H         1.0       0.6702936192167986  0.048810399537692284         0.6591116370804624 1.0000   
         H         H         1.0       0.6304419287765507  0.07254724085387254           0.5953844088336682 1.0000   
         H         H         1.0       0.6187656098788967  0.05840818649655821           0.6388227145491556 1.0000   
         C         C         1.0       0.8624003657534871  0.9416404489228853  0.7771150756255205 1.0000   
         C         C         1.0       0.8984534778954916  0.9357793977441509  0.7827479858865661 1.0000   
         H         H         1.0       0.8546788571017867  0.9618147411739827  0.7952804044873926 1.0000   
         H         H         1.0       0.8501739891367457  0.9227090297345154  0.7951606318435034 1.0000   
         H         H         1.0       0.9051889931210461  0.9264892562350434  0.8137211087835312 1.0000   
         H         H         1.0       0.9075659389321341  0.916405797444254   0.7618357897062246 1.0000   
         C         C         1.0       0.5537711743598879  0.6683547872313558  0.6427621141232077 1.0000   
         C         C         1.0       0.56747620462468    0.6973580738732239  0.6196035249669832 1.0000   
         H         H         1.0       0.5755191740423812  0.6541136182793852  0.6485364390817364 1.0000   
         H         H         1.0       0.5356155464414893  0.6546996341685476  0.625769736675934  1.0000   
         H         H         1.0       0.5750850355194224  0.687323538869443   0.5892059773652035 1.0000   
         H         H         1.0       0.5459721058623354  0.7130403177831971  0.6129999078183364 1.0000   
         C         C         1.0       0.7972638369201123  0.6378111269350081  0.8209368224355234 1.0000   
         C         C         1.0       0.9687810111489398  0.13760061097461573           0.9124626493563782 1.0000   
         H         H         1.0       0.7845675643104508  0.6487649983673758  0.847665375989682  1.0000   
         H         H         1.0       0.7835754897769452  0.6176908070609567  0.8097615171089163 1.0000   
         H         H         1.0       0.9713167606885256  0.12306937473214208           0.9405669362921228 1.0000   
         H         H         1.0       0.9928879782856992  0.14754295310897625           0.9141954360919317 1.0000   
         C         C         1.0       0.8646980361864154  0.16609821737174513           0.6316388491826669 1.0000   
         C         C         1.0       0.8632832108742204  0.1696524611896606  0.5829618447185344 1.0000   
         H         H         1.0       0.8718984935047545  0.14273780789949453           0.6391912449671995 1.0000   
         H         H         1.0       0.8398718271940709  0.1688295370422579  0.6427559239070572 1.0000   
         H         H         1.0       0.8879007041547525  0.16952627724750147           0.5679245039651529 1.0000   
         H         H         1.0       0.8504806858841598  0.19398096826288147           0.5764448490414369 1.0000   
         C         C         1.0       0.6771375088679461  0.9175982208602892  0.6726974261578971 1.0000   
         C         C         1.0       0.6543996968906527  0.8950437845169715  0.6477245970622209 1.0000   
         H         H         1.0       0.6820374153583664  0.9124418318227441  0.7057311288175908 1.0000   
         H         H         1.0       0.6652512695371401  0.9412301798367478  0.6738540368611659 1.0000   
         H         H         1.0       0.6302437453420844  0.9039278293202617  0.6522166921140825 1.0000   
         H         H         1.0       0.6567271531100126  0.9000236639316866  0.6142739273123896 1.0000   
         C         C         1.0       0.09334412650314539           0.5951974931495624 0.5577527685395434 1.0000   
         C         C         1.0       0.12416415487055898           0.6054170440656355 0.583254003728525  1.0000   
         H         H         1.0       0.08242665938476779           0.5745997505182039 0.5706368044410174 1.0000   
         H         H         1.0       0.10169680887613342           0.58734784285334   0.5277423683368562 1.0000   
         H         H         1.0       0.11675945303590418           0.6091898525888567 0.6153561442511256 1.0000   
         H         H         1.0       0.1416611473778533  0.5872345324281522  0.5888837107696471 1.0000   
         C         C         1.0       0.8879226586342813  0.8303592394983782  0.5102495430157997 1.0000   
         C         C         1.0       0.881043588928024   0.8634046204985673  0.49533410772179864          1.0000   
         H         H         1.0       0.866433479115022   0.8183917172028541  0.5231426203819033 1.0000   
         H         H         1.0       0.8938978040348454  0.8186026272422636  0.4790254723737882 1.0000   
         H         H         1.0       0.8664499451189541  0.8629603820278     0.46515517379215515          1.0000   
         H         H         1.0       0.9046807288423259  0.8749677925068591  0.4904608168102595 1.0000   
         C         C         1.0       0.9262271777402561  0.5751165888367511  0.5324236536444276 1.0000   
         C         C         1.0       0.8918356875701611  0.5775910453935004  0.5482099304063514 1.0000   
         H         H         1.0       0.92634539896307    0.5646181715407222  0.5029426335951861 1.0000   
         H         H         1.0       0.9428260241015197  0.5615415762134354  0.5500906874268464 1.0000   
         H         H         1.0       0.8799120121112172  0.5988701088900661  0.5382495008873656 1.0000   
         H         H         1.0       0.8767217269586056  0.5587861819033983  0.5321994486476039 1.0000   
         C         C         1.0       0.11641151362681557           0.8674757039471328 0.6218850177446953 1.0000   
         C         C         1.0       0.11718000296748365           0.9025398912571482 0.6088082238431264 1.0000   
         H         H         1.0       0.1317441892060458  0.8654390830387912  0.6493800998184945 1.0000   
         H         H         1.0       0.12728786163247174           0.8492185841449506 0.6003861838707494 1.0000   
         H         H         1.0       0.14258765822242747           0.903746048468485  0.5950914484540838 1.0000   
         H         H         1.0       0.10101434165351142           0.9106685337416563 0.5831885935508061 1.0000   
         C         C         1.0       0.9288466627276765  0.8325471804433984  0.7952554971201017 1.0000   
         C         C         1.0       0.8926806940476121  0.8384333552430108  0.7857389699536412 1.0000   
         H         H         1.0       0.9309219390422068  0.8119705810985076  0.8154813971323843 1.0000   
         H         H         1.0       0.9397882600158441  0.8545118365841646  0.8117676445941052 1.0000   
         H         H         1.0       0.8864231329544043  0.8623305649542956  0.774885173665075  1.0000   
         H         H         1.0       0.8825443892063316  0.8404838640883643  0.8161079778217998 1.0000   
         C         C         1.0       0.6129724166509356  0.9737407505262321  0.0777064807752148 1.0000   
         C         C         1.0       0.5866126939214942  0.9531343363237759  0.09574291650606193          1.0000   
         H         H         1.0       0.6041558085841084  0.9960869173170095  0.06798068833862003          1.0000   
         H         H         1.0       0.6189135874054282  0.9622697527175399  0.04901376631816068          1.0000   
         H         H         1.0       0.5958640757664149  0.9280501902036283  0.09068827695630777          1.0000   
         H         H         1.0       0.5620848319477362  0.9537122095182057  0.07742000363745172          1.0000   
         C         C         1.0       0.7454851652269646  0.019400123691422744         0.3419576330602732 1.0000   
         C         C         1.0       0.7621516968712869  0.05181439433604429           0.3477277629242423 1.0000   
         H         H         1.0       0.7218096932437785  0.020085834466883057         0.3544550814866851 1.0000   
         H         H         1.0       0.7596151667238569  0.0009249177181955837        0.3595718614165973 1.0000   
         H         H         1.0       0.7452632426226604  0.06803827646363203           0.3302584482750134 1.0000   
         H         H         1.0       0.7840253357713782  0.05206680405298503           0.3322398569659441 1.0000   
         C         C         1.0       0.08435905520155695           0.03192922552156974          0.16446296354198875          1.0000   
         C         C         1.0       0.10306187196703755           0.9999530747798588 0.17022574050141137          1.0000   
         H         H         1.0       0.09381741772869057           0.05068640923767864          0.18487769364189233          1.0000   
         H         H         1.0       0.059981081191476715          0.027830217679497782         0.17692693725712938          1.0000   
         H         H         1.0       0.10539096540470538           0.9932990853449858 0.20317931384709853          1.0000   
         H         H         1.0       0.08597690473815846           0.9822278679449518 0.1562182293248473 1.0000   
         C         C         1.0       0.1784922996272107  0.971037448037513   0.9088826850768683 1.0000   
         C         C         1.0       0.17241426843935925           0.9397182761021018 0.8830728628414889 1.0000   
         H         H         1.0       0.19034728961957437           0.98845690212296   0.8890984525901909 1.0000   
         H         H         1.0       0.1979681990219051  0.968441768636466   0.9313515871288053 1.0000   
         H         H         1.0       0.1956005672536021  0.9319511990967181  0.8788305617133518 1.0000   
         H         H         1.0       0.1597541723909348  0.9243575351453256  0.9025412604520416 1.0000   
         C         C         1.0       0.848664047458901   0.07257919746671426           0.8860934386961435 1.0000   
         C         C         1.0       0.8140401566160415  0.061611322279690794         0.8934466625839024 1.0000   
         H         H         1.0       0.8512185349376837  0.09786737886899144           0.8953945456075965 1.0000   
         H         H         1.0       0.8552362551471006  0.06980493839558854           0.8543919185540781 1.0000   
         H         H         1.0       0.7981124610713246  0.07453181786035512           0.8731325072482187 1.0000   
         H         H         1.0       0.8130878534748561  0.03703365202836317           0.8877156441130613 1.0000   
         C         C         1.0       0.6778343679666459  0.8474215173252679  0.19248317392986625          1.0000   
         C         C         1.0       0.656925369345925   0.875812016982965   0.18117266922189512          1.0000   
         H         H         1.0       0.6673753180934233  0.8341152160992541  0.2179555868738352 1.0000   
         H         H         1.0       0.702140800669797   0.8531422998012084  0.2050916368651894 1.0000   
         H         H         1.0       0.6544619054689794  0.8909356948812139  0.2079989778516398 1.0000   
         H         H         1.0       0.671826496809082   0.8890599539333776  0.1613225815461894 1.0000   
         C         C         1.0       0.6914779484055757  0.7381655263823511  0.87594548187382   1.0000   
         C         C         1.0       0.6668802974092229  0.7584205152844231  0.9020593372942253 1.0000   
         H         H         1.0       0.6887611963335946  0.7123045114912299  0.8841259011501921 1.0000   
         H         H         1.0       0.7165450239516992  0.7395018086856485  0.8827750802229037 1.0000   
         H         H         1.0       0.6606944239462729  0.7812485598801031  0.8876490392180959 1.0000   
         H         H         1.0       0.643075398343254   0.7473539422392899  0.899167131513406  1.0000   
         C         C         1.0       0.9478431300912218  0.8372748435774782  0.932384646738549  1.0000   
         C         C         1.0       0.9360172866407267  0.8646798365504539  0.9046191276341502 1.0000   
         H         H         1.0       0.9526327535245177  0.8177348199321663  0.911632654915594  1.0000   
         H         H         1.0       0.9703755907143552  0.8424665674050498  0.9485407357138671 1.0000   
         H         H         1.0       0.9105034401454332  0.8601966609188442  0.892872151161965  1.0000   
         H         H         1.0       0.9477692469391715  0.8642331530162031  0.8738226647939407 1.0000   
         C         C         1.0       0.8049463145655261  0.6361648106632866  0.11640317560683289          1.0000   
         C         C         1.0       0.76848446027087    0.634722960361164   0.12409164969685471          1.0000   
         H         H         1.0       0.8121673054868126  0.6154315996752548  0.09729376936169021          1.0000   
         H         H         1.0       0.8121612838935854  0.6577072793669948  0.09860562828739838          1.0000   
         H         H         1.0       0.7619371403335775  0.6267397547564777  0.15481699043053432          1.0000   
         H         H         1.0       0.7614355644647012  0.6142020740987498  0.10264705316603351          1.0000   
         C         C         1.0       0.8585964847204306  0.870972296110854   0.1926730495666805 1.0000   
         C         C         1.0       0.8228224648119208  0.8687425254149168  0.1982977691595661 1.0000   
         H         H         1.0       0.8734549435093886  0.865466162197294   0.22348914053626645          1.0000   
         H         H         1.0       0.8675889579438973  0.8962652268074418  0.1926520580040462 1.0000   
         H         H         1.0       0.8127505318743068  0.8470866223901787  0.18486200369887473          1.0000   
         H         H         1.0       0.817455666423555   0.8660078439304005  0.231355351032647  1.0000   
         C         C         1.0       0.13836962744033587           0.9034559256520674 0.15614203991240255          1.0000   
         C         C         1.0       0.16276608648896135           0.9000530957833709 0.19157822766934826          1.0000   
         H         H         1.0       0.14622066961588273           0.8926953321742118 0.12672911348705038          1.0000   
         H         H         1.0       0.13894987834609718           0.9279338466714259 0.1490718886008606 1.0000   
         H         H         1.0       0.15547829306372818           0.9158531940200366 0.2178055041536621 1.0000   
         H         H         1.0       0.1853965511108937  0.9105709322795095  0.18134318077326078          1.0000   
         C         C         1.0       0.9931351488996049  0.7860123602563341  0.40199861168148837          1.0000   
         C         C         1.0       0.02476026004379772           0.7936492694575026 0.3798571505480905 1.0000   
         H         H         1.0       0.9814435610059848  0.8069077549425498  0.4145520450815034 1.0000   
         H         H         1.0       0.9737143016098939  0.7766546475729946  0.3789552651674028 1.0000   
         H         H         1.0       0.037239965087822124          0.7703110831690801 0.3732690267707398 1.0000   
         H         H         1.0       0.041055832359087274          0.8048013850451132 0.4006176966643157 1.0000   
         C         C         1.0       0.9634395921596662  0.08779261486214485           0.08392125335503242          1.0000   
         C         C         1.0       0.9381417411855434  0.09227380252890272           0.11894783740729009          1.0000   
         H         H         1.0       0.9509194181024513  0.08098930729023834           0.05414201561860099          1.0000   
         H         H         1.0       0.9781678050762522  0.0654503832502995  0.08785234996865297          1.0000   
         H         H         1.0       0.9401652952227563  0.11366006795306349           0.13748696767786023          1.0000   
         H         H         1.0       0.9448050648592182  0.07243510806713505           0.13964867297838243          1.0000   
         C         C         1.0       0.1079451168799237  0.1785125542008381  0.9189617730287968 1.0000   
         C         C         1.0       0.1106121231606274  0.20845588899592538           0.9469979261645386 1.0000   
         H         H         1.0       0.12994701659685548           0.17412561917011726          0.9011412768833651 1.0000   
         H         H         1.0       0.08787000182805982           0.18217649068379438          0.8969405969077655 1.0000   
         H         H         1.0       0.10749498365091004           0.22952039222721887          0.9268734870889622 1.0000   
         H         H         1.0       0.13427578653984273           0.21030889234969563          0.9622972399181751 1.0000   
         C         C         1.0       0.921568858718787   0.9322298663992049  0.15519568892406407          1.0000   
         C         C         1.0       0.9349975803347285  0.9652781464523881  0.1454730894844852 1.0000   
         H         H         1.0       0.9067747527436509  0.9239084333778492  0.1267018784489052 1.0000   
         H         H         1.0       0.9018010763760941  0.9365813030147967  0.17592547185762825          1.0000   
         H         H         1.0       0.9588358584132317  0.9674163392365954  0.16263808612934322          1.0000   
         H         H         1.0       0.9210351632843407  0.9845606998155685  0.15781507657409144          1.0000   
         C         C         1.0       0.9324821387358229  0.6314220923216611  0.09046637396235946          1.0000   
         C         C         1.0       0.8962926007295832  0.6412781888917292  0.08159776449293066          1.0000   
         H         H         1.0       0.9323928771228169  0.6080577411409662  0.10170021121981487          1.0000   
         H         H         1.0       0.9461181113485516  0.6277555702683536  0.06266153812615816          1.0000   
         H         H         1.0       0.8832311962535978  0.633145925461245   0.11032843183183937          1.0000   
         H         H         1.0       0.8869501647985095  0.6270602069038035  0.054110740776821986         1.0000

