data_0
_chemical_formula_structural 
                                        C6H4C38H24C6H4C38H24C6H4C38H24C6H4C38H24C6H4C38H24C6H4C38H24C6H4C38H24C6H4C38H24C6H4C38H24C6H4C38H24C6H4C38H24C6H4C38H24C6H4C38H24C6H4C38H24C6H4C38H24C6H4C38H24C2H4C2H4C2H4C2H4C2H4C2H4C2H4C2H4C2H4C2H4C2H4C2H4C2H4C2H4C2H4C2H4C2H4C2H4C2H4C2H4C2H4C2H4C2H4C2H4C2H4C2H4C2H4C2H4C2H4C2H4C2H4C2H4C2H4C2H4C2H4C2H4C2H4C2H4C2H4C2H4C2H4C2H4C2H4C2H4C2H4C2H4C2H4C2H4C6H4C38H24C6H4C38H24C6H4C38H24C6H4C38H24C6H4C38H24C6H4C38H24C6H4C38H24C6H4C38H24C6H4C38H24C6H4C38H24C6H4C38H24C6H4C38H24C6H4C38H24C6H4C38H24C6H4C38H24C6H4C38H24C2H4C2H4C2H4C2H4C2H4C2H4C2H4C2H4C2H4C2H4C2H4C2H4C2H4C2H4C2H4C2H4C2H4C2H4C2H4C2H4C2H4C2H4C2H4C2H4C2H4C2H4C2H4C2H4C2H4C2H4C2H4C2H4C2H4C2H4C2H4C2H4C2H4C2H4C2H4C2H4C2H4C2H4C2H4C2H4C2H4C2H4C2H4C2H4
_chemical_formula_sum                   'C1600 H1280'
_cell_length_a                          53.0885927310936
_cell_length_b                          54.17566764417331
_cell_length_c                          41.838341500086734
_cell_angle_alpha                       90.82906310328796
_cell_angle_beta                        91.53319693383933
_cell_angle_gamma                       89.46640009926192
_space_group_name_H-M_alt               'P 1'
_space_group_IT_number                  1
loop_
  _space_group_symop_operation_xyz
         'x, y, z' 
loop_
  _atom_site_type_symbol
  _atom_site_label
  _atom_site_symmetry_multiplicity
  _atom_site_fract_x
  _atom_site_fract_y
  _atom_site_fract_z
  _atom_site_occupancy
         C         C         1.0       0.9753204501882919  0.10748239019258203           0.11967884335584461          1.0000   
         C         C         1.0       0.9616563920786934  0.0958161661046831  0.14108313265756878          1.0000   
         C         C         1.0       0.9368969739488903  0.10206258921934    0.14814754703313618          1.0000   
         C         C         1.0       0.9249240344100375  0.12055076395135356           0.1300182534235136 1.0000   
         C         C         1.0       0.9372235279072     0.12800869982962293           0.10265467159282306          1.0000   
         C         C         1.0       0.9617431687407569  0.12302913013635265           0.09919846232628486          1.0000   
         H         H         1.0       0.9698729360692847  0.08014027273713377           0.15457093477299524          1.0000   
         H         H         1.0       0.9295689094186007  0.09432498854189858           0.16963343413298607          1.0000   
         H         H         1.0       0.9288290185337059  0.140185240566424   0.08688913860875298          1.0000   
         H         H         1.0       0.9723834739114003  0.13067743875780446           0.07872974590095287          1.0000   
         C         C         1.0       0.9045931997037256  0.17426470345962883           0.1321431513565002 1.0000   
         C         C         1.0       0.8913093511861099  0.1533378375982458  0.12277293861225662          1.0000   
         C         C         1.0       0.8687518507481913  0.15755530547420504           0.10458807778636021          1.0000   
         C         C         1.0       0.861691567195748   0.18022338954650668           0.09460298452198622          1.0000   
         C         C         1.0       0.8763110701329652  0.20076409704635062           0.10249716759191976          1.0000   
         C         C         1.0       0.8970087245051699  0.1978090337542222  0.12212984281575719          1.0000   
         C         C         1.0       0.8967406354181605  0.12769170954781    0.13825831471517433          1.0000   
         C         C         1.0       0.8929540772276789  0.1334207684678286  0.17557712120949545          1.0000   
         C         C         1.0       0.8693274031575449  0.1374157009033408  0.1866605674760641 1.0000   
         C         C         1.0       0.8646816754608571  0.1423696698871502  0.21868156553267537          1.0000   
         C         C         1.0       0.884121013831052   0.14096160103486804           0.24118009815352015          1.0000   
         C         C         1.0       0.9080719016879636  0.13792867163914177           0.23112721242809012          1.0000   
         C         C         1.0       0.912556311294389   0.13576076043251784           0.19969075049991453          1.0000   
         C         C         1.0       0.8805307150925499  0.09920191856651958           0.09203014968347033          1.0000   
         C         C         1.0       0.8692584335507052  0.0787543734894688  0.07853944357288115          1.0000   
         C         C         1.0       0.8562523487287592  0.06268824728934062           0.09700916530085411          1.0000   
         C         C         1.0       0.8575023322622514  0.06732347723447497           0.1304728140461947 1.0000   
         C         C         1.0       0.8695940804165434  0.08709057121771763           0.14340289997633407          1.0000   
         C         C         1.0       0.8806363872102309  0.10407218820312426           0.12453064099380141          1.0000   
         C         C         1.0       0.840272891059168   0.04116791559249284           0.08277966924937595          1.0000   
         C         C         1.0       0.7785465071553863  0.09400126686727583           0.06220250408770663          1.0000   
         C         C         1.0       0.7942621640455916  0.08699036420921742           0.0394567995284887 1.0000   
         C         C         1.0       0.8133090239045327  0.0700648382418556  0.04414397648962683          1.0000   
         C         C         1.0       0.8161851821129841  0.05877292252022437           0.07385297090366216          1.0000   
         C         C         1.0       0.798901561584634   0.06679177369594105           0.0980085318142518 1.0000   
         C         C         1.0       0.7809679774037415  0.08378662348055854           0.09233837256376222          1.0000   
         C         C         1.0       0.8350585161536298  0.01779779091577818           0.10273026886454001          1.0000   
         C         C         1.0       0.8505217830062698  0.00914941556519953           0.1278334885365609 1.0000   
         C         C         1.0       0.8292694443767168  0.4965472135282021  0.1334294869207913 1.0000   
         C         C         1.0       0.8073513616880916  0.4859855269397782  0.12339218407717076          1.0000   
         C         C         1.0       0.7973844313927376  0.4933242967868052  0.09375489026331502          1.0000   
         C         C         1.0       0.8067790830868347  0.5109298583435603  0.07724419860075177          1.0000   
         C         C         1.0       0.8422588843103846  0.017511200692739915         0.027570357071166535         1.0000   
         C         C         1.0       0.8568123752081465  0.506831908393897   0.996573758520886  1.0000   
         C         C         1.0       0.8816556855461685  0.5068044316775654  0.0011262924509780614        1.0000   
         C         C         1.0       0.8932666045549942  0.5193201116231807  0.026490141009698175         1.0000   
         C         C         1.0       0.8811514281998499  0.020930825335944453         0.05551068106287749          1.0000   
         C         C         1.0       0.8553600249126578  0.02738281691645048           0.05415441712210755          1.0000   
         H         H         1.0       0.9197579996120544  0.1739317788808323  0.14974231882631814          1.0000   
         H         H         1.0       0.8577722849036781  0.14252325105634459           0.09642918746440159          1.0000   
         H         H         1.0       0.8428626272273355  0.1818536853847665  0.08196503142398653          1.0000   
         H         H         1.0       0.9063542521556504  0.21404710134735222           0.13331961517549074          1.0000   
         H         H         1.0       0.8520942785807548  0.1371920622372138  0.1707033816036313 1.0000   
         H         H         1.0       0.8447359184900807  0.14391270367838405           0.22327883303701557          1.0000   
         H         H         1.0       0.9228617143920634  0.13770330156538851           0.2489334158013953 1.0000   
         H         H         1.0       0.9324989552238713  0.13654238794509926           0.19395225971171176          1.0000   
         H         H         1.0       0.8885598648593196  0.1130019092931914  0.07359093384831589          1.0000   
         H         H         1.0       0.8689966487765929  0.07843177522184895           0.05316462476978886          1.0000   
         H         H         1.0       0.847813203335733   0.05481885407405053           0.1464754892702763 1.0000   
         H         H         1.0       0.8700935234171506  0.08836783845227518           0.1691804258634957 1.0000   
         H         H         1.0       0.7930878251669428  0.09756057955022375           0.017108372101085845         1.0000   
         H         H         1.0       0.8276776175853692  0.06730554023869073           0.02691289971181262          1.0000   
         H         H         1.0       0.7994190241293782  0.061170741974379966         0.12220035337981158          1.0000   
         H         H         1.0       0.7682453479025608  0.08797569527971069           0.11235555828761527          1.0000   
         H         H         1.0       0.8689240341751084  0.018765151178813118         0.1316947337381957 1.0000   
         H         H         1.0       0.8389160252428485  0.48875882468221293           0.15314512548494336          1.0000   
         H         H         1.0       0.7806329475916551  0.4829621787215747  0.08381431904132541          1.0000   
         H         H         1.0       0.8028787180258967  0.005907673439536103         0.07289549544105532          1.0000   
         H         H         1.0       0.8211663251177773  0.019032415262349753         0.02497163332705901          1.0000   
         H         H         1.0       0.8451911123821854  0.4950991695052433  0.9786956129005386 1.0000   
         H         H         1.0       0.9137104073550603  0.5177448038040646  0.03091655020637103          1.0000   
         H         H         1.0       0.892041248617175   0.028423412771810545         0.0756390917710561 1.0000   
         C         C         1.0       0.6429340795363471  0.141277181237912   0.8243038149793335 1.0000   
         C         C         1.0       0.6294551332186288  0.15720241213035885           0.8434097103575787 1.0000   
         C         C         1.0       0.6304866274566377  0.15551643095644185           0.8774335087439586 1.0000   
         C         C         1.0       0.6437203714521622  0.1382574152002268  0.8943275402194227 1.0000   
         C         C         1.0       0.657402565535233   0.12115862857841721           0.8737596888677808 1.0000   
         C         C         1.0       0.6560372664645401  0.1232850936197052  0.8408420315169124 1.0000   
         H         H         1.0       0.6175313389164349  0.17081863629910962           0.8321302780221336 1.0000   
         H         H         1.0       0.6203021127602866  0.16917685564865223           0.890997401688418  1.0000   
         H         H         1.0       0.6704215098518868  0.1080517625125924  0.8853255567005941 1.0000   
         H         H         1.0       0.6690396956459332  0.1095938592272979  0.8286544668258923 1.0000   
         C         C         1.0       0.6502611230971971  0.08927505506604115           0.9372211042575581 1.0000   
         C         C         1.0       0.6546232235844294  0.11199380691594919           0.949746530335269  1.0000   
         C         C         1.0       0.6690079366758231  0.1140506626641919  0.9778676492831687 1.0000   
         C         C         1.0       0.679757105770197   0.09324955258628488           0.9929185684533511 1.0000   
         C         C         1.0       0.6741391533177632  0.07026161335544573           0.9798342192462405 1.0000   
         C         C         1.0       0.6600380713621333  0.0683966162114132  0.9510225370531398 1.0000   
         C         C         1.0       0.6433807331183993  0.1365581777282618  0.9324787996408248 1.0000   
         C         C         1.0       0.6162182287127183  0.13607067426742075           0.9434496244082657 1.0000   
         C         C         1.0       0.6078819223415779  0.14431574946526765           0.9729835787245801 1.0000   
         C         C         1.0       0.5833234741898511  0.14081086256609074           0.9825354925670952 1.0000   
         C         C         1.0       0.5661112334463048  0.12962440740777467           0.9633548023479371 1.0000   
         C         C         1.0       0.5724918482007574  0.12183331294900436           0.9334814560630051 1.0000   
         C         C         1.0       0.597339300034608   0.12479359693955035           0.9239698149022505 1.0000   
         C         C         1.0       0.6864763497781647  0.15747384668280714           0.9336429050692461 1.0000   
         C         C         1.0       0.7031977455284041  0.17464066791400035           0.9430611086230335 1.0000   
         C         C         1.0       0.6970891181620659  0.1946778191538735  0.9617845243243048 1.0000   
         C         C         1.0       0.6723377813918808  0.19623246027430996           0.9695586794691546 1.0000   
         C         C         1.0       0.6545208812221894  0.1800474936100653  0.9584595233529544 1.0000   
         C         C         1.0       0.6615046299089745  0.15904112788932478           0.9415117917603663 1.0000   
         C         C         1.0       0.7199386299199649  0.21281647780236332           0.9751110860185649 1.0000   
         C         C         1.0       0.7579204996139595  0.15805600119701393           0.038579891484091064         1.0000   
         C         C         1.0       0.7669357172742642  0.1627305340519655  0.008989987935769328         1.0000   
         C         C         1.0       0.7564211958782328  0.1805822527622475  0.9894270672556013 1.0000   
         C         C         1.0       0.7351513120680332  0.19373613855931332           0.9987843888728326 1.0000   
         C         C         1.0       0.7256423247365363  0.18801066888806423           0.02808399876012646          1.0000   
         C         C         1.0       0.7366874661171775  0.1717026222343962  0.048363687989270855         1.0000   
         C         C         1.0       0.7102889234841326  0.23823556987242012           0.9901662134266802 1.0000   
         C         C         1.0       0.6900974660168472  0.251204496844456   0.9752824932646753 1.0000   
         C         C         1.0       0.6809805515358016  0.2726661080371712  0.9874463995710426 1.0000   
         C         C         1.0       0.6933896625408622  0.28352565883844943           0.014044514983920725         1.0000   
         C         C         1.0       0.7136436596278     0.2718856270083468  0.02820466944909858          1.0000   
         C         C         1.0       0.7219820614278805  0.2497094216801313  0.015362831835562973         1.0000   
         C         C         1.0       0.759612074983631   0.23024275773434047           0.9508042615528807 1.0000   
         C         C         1.0       0.7738741129679673  0.23729409573884688           0.9271183566075124 1.0000   
         C         C         1.0       0.7632987952035206  0.23801052319901714           0.8966983287111391 1.0000   
         C         C         1.0       0.7386764584276345  0.23324387482039868           0.8904173323719751 1.0000   
         C         C         1.0       0.723782949864801   0.22776622050336315           0.9149096518735905 1.0000   
         C         C         1.0       0.7343682090778597  0.22273505135253746           0.9450598767618958 1.0000   
         H         H         1.0       0.6377738625786721  0.0882637991027081  0.9163621110807926 1.0000   
         H         H         1.0       0.6738784603568594  0.1314584422449792  0.989633875362484  1.0000   
         H         H         1.0       0.6902315263124783  0.09470312009531748           0.015997079538025094         1.0000   
         H         H         1.0       0.6578730625804179  0.05038463659655192           0.938409977440715  1.0000   
         H         H         1.0       0.6220225180875291  0.15019662468597766           0.9898710858954161 1.0000   
         H         H         1.0       0.5787286445734939  0.1476150760062108  0.006375757392885317         1.0000   
         H         H         1.0       0.5583874638168415  0.11260778576325302           0.9172811957815944 1.0000   
         H         H         1.0       0.6014703846344442  0.115529962016812   0.9033040645416084 1.0000   
         H         H         1.0       0.6921481813655145  0.14212717933602548           0.9186755855486227 1.0000   
         H         H         1.0       0.7217660074544343  0.16852491455743032           0.9373342687992193 1.0000   
         H         H         1.0       0.6645524434143532  0.21131687792484044           0.984757599780804  1.0000   
         H         H         1.0       0.6358185303868069  0.18353983795975493           0.9651937129091279 1.0000   
         H         H         1.0       0.7822311580976471  0.1517911885197092  0.001416315210700958         1.0000   
         H         H         1.0       0.763409632623733   0.18443649054041497           0.9649696586365833 1.0000   
         H         H         1.0       0.7082166599294832  0.19710404973508985           0.03572211039227508          1.0000   
         H         H         1.0       0.7303048121543555  0.16853522481828168           0.07145468096595473          1.0000   
         H         H         1.0       0.6808247505322962  0.24371882105879134           0.9551134183030672 1.0000   
         H         H         1.0       0.6668913487203187  0.28241409011769364           0.9741211035855791 1.0000   
         H         H         1.0       0.7229744159358856  0.27802532749564435           0.050470662834474204         1.0000   
         H         H         1.0       0.7380504275432209  0.2391005704420981  0.02463112437283476          1.0000   
         H         H         1.0       0.7684726417409645  0.23191810770690746           0.9736097131296834 1.0000   
         H         H         1.0       0.7920948534829457  0.24277042919044067           0.935092971364789  1.0000   
         H         H         1.0       0.7314535385052111  0.23301514879837282           0.8649927083613941 1.0000   
         H         H         1.0       0.7046500936936025  0.22232413484846164           0.9097582282708732 1.0000   
         C         C         1.0       0.907254372469778   0.37846298651102767           0.8308342566782992 1.0000   
         C         C         1.0       0.9205336479322284  0.35934943230817057           0.8444580623690779 1.0000   
         C         C         1.0       0.9250105062496001  0.3589876072130497  0.8766474663100783 1.0000   
         C         C         1.0       0.9173472666097632  0.3780123613171076  0.896319241416772  1.0000   
         C         C         1.0       0.9009599568043407  0.3953275298094661  0.8821118459520648 1.0000   
         C         C         1.0       0.8954634293364505  0.3955487500044062  0.8506837521911246 1.0000   
         H         H         1.0       0.929292620979646   0.3444558885912748  0.8313266716226562 1.0000   
         H         H         1.0       0.9378539853435914  0.3438017180123373  0.8851548466664041 1.0000   
         H         H         1.0       0.8906435991558095  0.4096093013406874  0.8956253896611832 1.0000   
         H         H         1.0       0.8836438508683719  0.40929672969158326           0.8415527456192612 1.0000   
         C         C         1.0       0.9296551418597966  0.4232596309161182  0.9372998543533538 1.0000   
         C         C         1.0       0.9245139888175227  0.4009800426055913  0.9525006915751388 1.0000   
         C         C         1.0       0.9179544472195845  0.401435206343361   0.9839068107830324 1.0000   
         C         C         1.0       0.9148545951394865  0.4238892815676866  0.0002168852994532955        1.0000   
         C         C         1.0       0.9188398494811573  0.445932669638401   0.9845191791588439 1.0000   
         C         C         1.0       0.9280121332695995  0.44504564840925726           0.9532597996900621 1.0000   
         C         C         1.0       0.9248227337637811  0.3766647441047191  0.9334688881922559 1.0000   
         C         C         1.0       0.9538593218125109  0.3708092886459092  0.9406162185759024 1.0000   
         C         C         1.0       0.9612123197657205  0.35729854956566875           0.9675651178915115 1.0000   
         C         C         1.0       0.9864641664028839  0.3529882917347254  0.975239544416365  1.0000   
         C         C         1.0       0.004544521655861944          0.36457381971968045          0.9590375863941373 1.0000   
         C         C         1.0       0.996393565172978   0.3766792798914976  0.9316740114535891 1.0000   
         C         C         1.0       0.9724395324568764  0.38143025673271513           0.9235847687118989 1.0000   
         C         C         1.0       0.8799780372217482  0.3667059423168867  0.9481845956900571 1.0000   
         C         C         1.0       0.8613522129021501  0.3511659270685456  0.958103073911304  1.0000   
         C         C         1.0       0.8665720738913173  0.3272488051137548  0.9640969287743676 1.0000   
         C         C         1.0       0.8897049590445314  0.31820565105897214           0.9560497496163741 1.0000   
         C         C         1.0       0.9081024385927855  0.33179193426655035           0.9467900587436755 1.0000   
         C         C         1.0       0.904257814167193   0.35725533499163264           0.9441505560106278 1.0000   
         C         C         1.0       0.8456707469283373  0.3093931234548885  0.9752765154577675 1.0000   
         C         C         1.0       0.790285971447194   0.3507341005908444  0.03491504405150914          1.0000   
         C         C         1.0       0.7825688285666914  0.33042767354748126           0.017077052842378482         1.0000   
         C         C         1.0       0.799852348753964   0.31633761877356475           0.0010785248864180197        1.0000   
         C         C         1.0       0.8254007816375726  0.3234740429068918  0.999424602711731  1.0000   
         C         C         1.0       0.8327451837916485  0.34177328026205006           0.02097086932640857          1.0000   
         C         C         1.0       0.8144667686853267  0.3564233664848239  0.03556097934050716          1.0000   
         C         C         1.0       0.8537920849782801  0.28922050798503207           0.9996122691433404 1.0000   
         C         C         1.0       0.8428832474742954  0.2656889543797613  0.9979159678526877 1.0000   
         C         C         1.0       0.8528895658532698  0.2468063305339023  0.016590964100910766         1.0000   
         C         C         1.0       0.8724197679903548  0.2513934241716715  0.0385353041956511 1.0000   
         C         C         1.0       0.8810758117301147  0.2755934928625773  0.042034373491009636         1.0000   
         C         C         1.0       0.8725606991895787  0.29346673963254094           0.02172651646022783          1.0000   
         C         C         1.0       0.8426429130858515  0.27896631082773815           0.9256241102489622 1.0000   
         C         C         1.0       0.830562026482752   0.2672537506059009  0.8997683109960177 1.0000   
         C         C         1.0       0.8093380077440705  0.2784095534098101  0.887019865183097  1.0000   
         C         C         1.0       0.8017570517397119  0.30111819613624324           0.8995496653971177 1.0000   
         C         C         1.0       0.8140234780658047  0.31203538727517854           0.9248212643720076 1.0000   
         C         C         1.0       0.8342199585605681  0.3001692770189105  0.9403365375520089 1.0000   
         H         H         1.0       0.9377218008682108  0.42349393714773204           0.913908869778251  1.0000   
         H         H         1.0       0.9131740989977115  0.38374390935097247           0.9949512848276334 1.0000   
         H         H         1.0       0.9093537597567863  0.4239179442522168  0.02491653186995091          1.0000   
         H         H         1.0       0.9326328662632636  0.46273447448745514           0.942161527168401  1.0000   
         H         H         1.0       0.9464556132321691  0.3509144771374545  0.9829104288463263 1.0000   
         H         H         1.0       0.9919611967284555  0.34159918456691124           0.9952841552534892 1.0000   
         H         H         1.0       0.009217595807568224          0.38685642071611537          0.9159615542765664 1.0000   
         H         H         1.0       0.9663496458180589  0.39377060348525916           0.9029598782803888 1.0000   
         H         H         1.0       0.8765480745010851  0.3860846506445283  0.9426326512284026 1.0000   
         H         H         1.0       0.8424018107451732  0.3592493712320527  0.9607650859030941 1.0000   
         H         H         1.0       0.8955743333017523  0.2977015865863599  0.9565714386651741 1.0000   
         H         H         1.0       0.9256671309360692  0.32326493548528307           0.9372414940100937 1.0000   
         H         H         1.0       0.7618734809653646  0.32712631666867353           0.0137470515538467 1.0000   
         H         H         1.0       0.7927980766199217  0.29990037003214287           0.98609651795298   1.0000   
         H         H         1.0       0.851963000837532   0.34679927357075996           0.026286830429467  1.0000   
         H         H         1.0       0.8203402917064705  0.3725761830204295  0.04938582981855767          1.0000   
         H         H         1.0       0.8260031300580566  0.2636997647711035  0.9849626092417517 1.0000   
         H         H         1.0       0.8461451028558601  0.22728448902784618           0.014751530330930684         1.0000   
         H         H         1.0       0.8969550182343852  0.2785606692609355  0.05821462758947051          1.0000   
         H         H         1.0       0.8805403766825982  0.3116746258571979  0.02408809469125428          1.0000   
         H         H         1.0       0.8580574656910707  0.26910553350368555           0.9360462894086621 1.0000   
         H         H         1.0       0.8383212397009794  0.2503977836723868  0.8912313630048928 1.0000   
         H         H         1.0       0.7843526936807974  0.31020789001731075           0.892288643734122  1.0000   
         H         H         1.0       0.8065020471059396  0.329111235473267   0.93378537710476   1.0000   
         C         C         1.0       0.5391362571701838  0.3913753701005503  0.1218558375789183 1.0000   
         C         C         1.0       0.5533438010133814  0.39925504069266393           0.14772252397726096          1.0000   
         C         C         1.0       0.5791487921389783  0.39977270431444306           0.14746892630096517          1.0000   
         C         C         1.0       0.5922060997040183  0.38716166450373385           0.12415937392426069          1.0000   
         C         C         1.0       0.578299653867646   0.37869982864072776           0.09712230989344771          1.0000   
         C         C         1.0       0.552191105357459   0.38141121086796265           0.09700846648334874          1.0000   
         H         H         1.0       0.5443419335078838  0.40958041784840565           0.16684159786851768          1.0000   
         H         H         1.0       0.5905774126890773  0.4091846547918487  0.1669517287943958 1.0000   
         H         H         1.0       0.5867609387384103  0.37030546394037434           0.07607045473727067          1.0000   
         H         H         1.0       0.5415899735843138  0.3736175110544843  0.07691970964256387          1.0000   
         C         C         1.0       0.6196881430840756  0.338108463899087   0.10100502288664331          1.0000   
         C         C         1.0       0.6332582377215968  0.35837564687275386           0.10962706536910577          1.0000   
         C         C         1.0       0.6585618219958196  0.35799414690625714           0.10378296432461431          1.0000   
         C         C         1.0       0.6694467000529963  0.33801318480441633           0.08823955827966694          1.0000   
         C         C         1.0       0.6550985842179791  0.3196925392686631  0.07645454423112578          1.0000   
         C         C         1.0       0.6302699651733424  0.3178230953056751  0.08474259560228654          1.0000   
         C         C         1.0       0.6218896641038406  0.3818757128646886  0.1265748914770112 1.0000   
         C         C         1.0       0.6307156431946955  0.3771494503249717  0.16250365780766382          1.0000   
         C         C         1.0       0.6527832340580161  0.3859573864820128  0.1765502559515793 1.0000   
         C         C         1.0       0.6588714248475087  0.38296884247625534           0.208675732784315  1.0000   
         C         C         1.0       0.6426784059579654  0.370154560481713   0.22796541726608308          1.0000   
         C         C         1.0       0.6220135365634368  0.3587382944925169  0.21298241925257105          1.0000   
         C         C         1.0       0.6171499471005233  0.3606692659720687  0.1790935582207519 1.0000   
         C         C         1.0       0.6364249705770876  0.40860195897845636           0.07925325769357389          1.0000   
         C         C         1.0       0.6507451062577628  0.4264709028690772  0.06698289438271295          1.0000   
         C         C         1.0       0.6601628868401602  0.444919269142958   0.08808892051437762          1.0000   
         C         C         1.0       0.6511701337680341  0.4468814434645665  0.11834963409176501          1.0000   
         C         C         1.0       0.6358722716704541  0.4292702467805122  0.1291225863103735 1.0000   
         C         C         1.0       0.6307998273962925  0.4074929373774981  0.11196858299250716          1.0000   
         C         C         1.0       0.6865969084769883  0.4593301506295711  0.08033301400191185          1.0000   
         C         C         1.0       0.7365135963813433  0.4019347756961587  0.040077766987213936         1.0000   
         C         C         1.0       0.7373473791085696  0.42554264786486135           0.030276891924687563         1.0000   
         C         C         1.0       0.7209637560383154  0.4436913198673303  0.04309230852416234          1.0000   
         C         C         1.0       0.7050300037975192  0.4382627353165664  0.06638734206781735          1.0000   
         C         C         1.0       0.7072236965714603  0.41504446806891193           0.07882196761151929          1.0000   
         C         C         1.0       0.7216847884902499  0.39675680285282916           0.06575347788377806          1.0000   
         C         C         1.0       0.7062220231047128  0.4683082434063704  0.1083160492462887 1.0000   
         C         C         1.0       0.7129980914638181  0.4552396619587643  0.135735527827767  1.0000   
         C         C         1.0       0.7327129973948543  0.4617762599535106  0.15489589007048332          1.0000   
         C         C         1.0       0.7478942041978258  0.4795896642863664  0.14657170432502187          1.0000   
         C         C         1.0       0.7413115088270886  0.49378000587135884           0.12033952458557201          1.0000   
         C         C         1.0       0.7209420478166879  0.488498334922534   0.10193501397491891          1.0000   
         C         C         1.0       0.669237116776331   0.5018961924796027  0.06869254580832743          1.0000   
         C         C         1.0       0.6747502352352759  0.017476741868116073         0.07230299090057293          1.0000   
         C         C         1.0       0.6729526326168623  0.013759050511885234         0.039624788216502956         1.0000   
         C         C         1.0       0.6604263780531335  0.4906094162907518  0.004583093808388708         1.0000   
         C         C         1.0       0.6702536070437164  0.4730296049261273  0.02463314656598266          1.0000   
         C         C         1.0       0.675959082530311   0.4792100467169483  0.056436773792070016         1.0000   
         H         H         1.0       0.6000912552339277  0.3368925582307169  0.1046577251244718 1.0000   
         H         H         1.0       0.6705425456672461  0.37257243591234557           0.11270507096645953          1.0000   
         H         H         1.0       0.6888620999827523  0.338545109170302   0.08268165843101517          1.0000   
         H         H         1.0       0.6198866524290789  0.3019978183515565  0.07793036521180076          1.0000   
         H         H         1.0       0.6661424942409765  0.39624270792183075           0.1640303561718411 1.0000   
         H         H         1.0       0.6732793497230989  0.3931379781875765  0.21835279290908607          1.0000   
         H         H         1.0       0.6097063064827116  0.34883214798078577           0.22815074435339094          1.0000   
         H         H         1.0       0.6017557791189946  0.3512087352116387  0.16728533488282488          1.0000   
         H         H         1.0       0.6299997190912423  0.3944423923945083  0.06295071430341166          1.0000   
         H         H         1.0       0.6556832220445143  0.4242538457341682  0.04244100086517988          1.0000   
         H         H         1.0       0.6592233119135872  0.4614444407346784  0.13360280667852842          1.0000   
         H         H         1.0       0.6293047960614169  0.4316896792869215  0.15225708623662548          1.0000   
         H         H         1.0       0.7486184188291568  0.4306477815838816  0.010595338670703799         1.0000   
         H         H         1.0       0.7236064600751828  0.46287960265599526           0.035392610120760816         1.0000   
         H         H         1.0       0.6944749158218287  0.41006670342275225           0.0974203717240283 1.0000   
         H         H         1.0       0.7209890063743064  0.3777125821556426  0.07628788642148027          1.0000   
         H         H         1.0       0.7015075699947553  0.4397349491945237  0.1415856535847684 1.0000   
         H         H         1.0       0.7347005337289562  0.45071212336951444           0.17676083290475306          1.0000   
         H         H         1.0       0.7655274738452534  0.0026080894664328  0.15536526012717455          1.0000   
         H         H         1.0       0.7179549219173643  0.49951334937467007           0.08108625531839937          1.0000   
         H         H         1.0       0.6726102766725274  0.5050858707054351  0.09410241764581301          1.0000   
         H         H         1.0       0.6704318252880859  0.035893125668472095         0.08271075199540696          1.0000   
         H         H         1.0       0.6551455872963865  0.48643685319083046           0.9805043642809643 1.0000   
         H         H         1.0       0.6736039175731752  0.4544809271689108  0.01690838169508706          1.0000   
         C         C         1.0       0.967096489853227   0.14198492569166052           0.4106519125794285 1.0000   
         C         C         1.0       0.9492524928545384  0.16072174426443336           0.40924562418944055          1.0000   
         C         C         1.0       0.9250215327007338  0.1552365558039379  0.416490039662963  1.0000   
         C         C         1.0       0.9181893473023629  0.13350182307686193           0.4307087853631803 1.0000   
         C         C         1.0       0.937273624490073   0.11524888850764965           0.4328349513863968 1.0000   
         C         C         1.0       0.9613813994164909  0.1196388078185165  0.4225963350294708 1.0000   
         H         H         1.0       0.9550102072326073  0.17881109571893847           0.40061711931316374          1.0000   
         H         H         1.0       0.9112520443556706  0.1692556852750407  0.41406437122427625          1.0000   
         H         H         1.0       0.9329537362246527  0.09762399402013026           0.44297828403736   1.0000   
         H         H         1.0       0.9769071887526916  0.1063957208770917  0.42391848219331446          1.0000   
         C         C         1.0       0.8965847620126709  0.09937616417352249           0.48447483367856736          1.0000   
         C         C         1.0       0.8868869958077148  0.10071866869418132           0.4523706523016244 1.0000   
         C         C         1.0       0.8753233416157248  0.07968232156522607           0.4386661049927774 1.0000   
         C         C         1.0       0.8696837082337273  0.06021446752948266           0.4564041561029476 1.0000   
         C         C         1.0       0.8753579037365138  0.06104406294045971           0.4895488344113311 1.0000   
         C         C         1.0       0.8884390663590481  0.08073014438306698           0.502524058770609  1.0000   
         C         C         1.0       0.8891710406578094  0.12549656671609002           0.43181424605553115          1.0000   
         C         C         1.0       0.8821988584079886  0.12229584069263605           0.39493541570142915          1.0000   
         C         C         1.0       0.8658594301936108  0.13722774015144246           0.37814616030809095          1.0000   
         C         C         1.0       0.861202134479294   0.13582627332898042           0.34524542834869876          1.0000   
         C         C         1.0       0.8746459873958654  0.1193609540102781  0.3276000378988639 1.0000   
         C         C         1.0       0.8901782695171986  0.10276001107607201           0.3425213753186768 1.0000   
         C         C         1.0       0.8939600899002219  0.10496813780054529           0.3752359036540535 1.0000   
         C         C         1.0       0.8441428561721563  0.13698962268963627           0.44720906236227614          1.0000   
         C         C         1.0       0.8264099491151284  0.15077460725726646           0.4612397127246489 1.0000   
         C         C         1.0       0.8311019856944825  0.175354264514817   0.4711607771096664 1.0000   
         C         C         1.0       0.8551793898307096  0.1838843002548189  0.4699153609986597 1.0000   
         C         C         1.0       0.8748915695549688  0.16885382665470414           0.46048977666690427          1.0000   
         C         C         1.0       0.8697170136879966  0.1447586040907929  0.4474084238673069 1.0000   
         C         C         1.0       0.8094527917040247  0.19409448080113464           0.48066626375308524          1.0000   
         C         C         1.0       0.7568247381771467  0.15782607304207172           0.5429328754300418 1.0000   
         C         C         1.0       0.7818062099276473  0.1512951569612003  0.5461437067529413 1.0000   
         C         C         1.0       0.7990862020051783  0.16379211793679763           0.5282872818522628 1.0000   
         C         C         1.0       0.7914520483690528  0.18077095748967006           0.5043712000681322 1.0000   
         C         C         1.0       0.7663052934894515  0.1883784338495566  0.5056157084552554 1.0000   
         C         C         1.0       0.7490748642593958  0.1748745643203553  0.5207941069798742 1.0000   
         C         C         1.0       0.7980112278433387  0.19920440025160724           0.44484308622532676          1.0000   
         C         C         1.0       0.8055368351911658  0.2188223774124501  0.42661529199619463          1.0000   
         C         C         1.0       0.7917260897183491  0.22551024280692963           0.4001497614733859 1.0000   
         C         C         1.0       0.7720695666774368  0.2117569289607083  0.3896661214852001 1.0000   
         C         C         1.0       0.7672703354248668  0.1904154549336081  0.4047687562458495 1.0000   
         C         C         1.0       0.7797314420413592  0.18518360662189295           0.43284567106760524          1.0000   
         C         C         1.0       0.8018169653774806  0.2413427524065225  0.4960704010370147 1.0000   
         C         C         1.0       0.8048344047374794  0.26036054140486153           0.5158374780880183 1.0000   
         C         C         1.0       0.8244766638123194  0.260551247070569   0.5384237393803136 1.0000   
         C         C         1.0       0.8378860988395079  0.23910870076728125           0.5427763175374245 1.0000   
         C         C         1.0       0.8341492306100637  0.2196401470254833  0.5236377766017517 1.0000   
         C         C         1.0       0.815252353922181   0.21961926577986082           0.500891683218268  1.0000   
         H         H         1.0       0.9026103669662099  0.11773041652582096           0.49342201952287157          1.0000   
         H         H         1.0       0.8681456257948053  0.0781572456850882  0.41457465435819607          1.0000   
         H         H         1.0       0.861477417277559   0.04275327446953148           0.4466229248440764 1.0000   
         H         H         1.0       0.8919906210333596  0.08090106594470571           0.5285887877474045 1.0000   
         H         H         1.0       0.8559608223427059  0.15195251552802863           0.3886895125435693 1.0000   
         H         H         1.0       0.8501440849633226  0.14977498982548582           0.33110956574581674          1.0000   
         H         H         1.0       0.9015028859003846  0.08919967537623337           0.32891085703367046          1.0000   
         H         H         1.0       0.9062229523743948  0.09083195964488744           0.3847116078632482 1.0000   
         H         H         1.0       0.83683945328219    0.12049737554717994           0.43427946256669664          1.0000   
         H         H         1.0       0.8084843736108438  0.14415922036278825           0.46061512950904654          1.0000   
         H         H         1.0       0.8588756568840462  0.20389892076006816           0.47257372471229164          1.0000   
         H         H         1.0       0.893851468825022   0.17564954245525247           0.46314277524252867          1.0000   
         H         H         1.0       0.7873088801861445  0.1358255705563133  0.5605903298813302 1.0000   
         H         H         1.0       0.8196910961625012  0.15800312720244594           0.5298547430376833 1.0000   
         H         H         1.0       0.7613206078602579  0.20414207604275877           0.49198225857998723          1.0000   
         H         H         1.0       0.7291554970739945  0.1796632908735715  0.5158856137932585 1.0000   
         H         H         1.0       0.8191889073236713  0.23196244556254697           0.4350107961748362 1.0000   
         H         H         1.0       0.7964146735266086  0.24242001794678822           0.38760421129517625          1.0000   
         H         H         1.0       0.7510919118048618  0.1808958448732633  0.39707011135004205          1.0000   
         H         H         1.0       0.7703056677310097  0.1711783229578912  0.4465765796820798 1.0000   
         H         H         1.0       0.7875044857123629  0.24361231176804607           0.4776626245706182 1.0000   
         H         H         1.0       0.7919867479032812  0.2765854938154709  0.5167644882645922 1.0000   
         H         H         1.0       0.851355888003932   0.23820472109290583           0.5617665731025813 1.0000   
         H         H         1.0       0.8438578561145567  0.20404046234605264           0.5288960944919897 1.0000   
         C         C         1.0       0.6090435594141071  0.14128290638975574           0.7421047205234409 1.0000   
         C         C         1.0       0.5922640904145762  0.12285262401358162           0.7313832732960636 1.0000   
         C         C         1.0       0.5874537697526264  0.11968156609244515           0.699045350320692  1.0000   
         C         C         1.0       0.5974989862992328  0.1363400456684394  0.6777042013256234 1.0000   
         C         C         1.0       0.6136393164153388  0.1540532887956183  0.6894551164143516 1.0000   
         C         C         1.0       0.6196866234213355  0.15694634531739843           0.7208410984409561 1.0000   
         H         H         1.0       0.5844530921941258  0.1091093314366063  0.7483328488314099 1.0000   
         H         H         1.0       0.577365552663593   0.10368618264890991           0.690007503653396  1.0000   
         H         H         1.0       0.6243249344423506  0.1627093425894266  0.6725313202148485 1.0000   
         H         H         1.0       0.6329742131623803  0.17032519106688676           0.7268742672521677 1.0000   
         C         C         1.0       0.5902149893360251  0.17782094328481743           0.6265942801673368 1.0000   
         C         C         1.0       0.5993579567968967  0.1547720196003169  0.6205750297741256 1.0000   
         C         C         1.0       0.6118140769582383  0.15234290059752395           0.592370404579165  1.0000   
         C         C         1.0       0.6139521286830251  0.17087685820673285           0.5711010817925577 1.0000   
         C         C         1.0       0.6062506946581722  0.19416012281832154           0.5793404353527069 1.0000   
         C         C         1.0       0.5926917532959874  0.19738078694493788           0.6062672848638327 1.0000   
         C         C         1.0       0.5938055281577074  0.13125705429104345           0.6415715186176655 1.0000   
         C         C         1.0       0.5647935037842224  0.1266544719248738  0.6308610963602597 1.0000   
         C         C         1.0       0.5601626347683609  0.11584069027900262           0.6007729458406326 1.0000   
         C         C         1.0       0.5351423443022589  0.11261579464878317           0.5911485239051596 1.0000   
         C         C         1.0       0.5154646071486378  0.12001668784486869           0.6094798031515927 1.0000   
         C         C         1.0       0.5199947773949305  0.13036877014998047           0.6392052255221303 1.0000   
         C         C         1.0       0.544827002777662   0.1341221348263231  0.6496793765241377 1.0000   
         C         C         1.0       0.637268520187061   0.11360563757421656           0.6404170981507596 1.0000   
         C         C         1.0       0.6546677267778082  0.09488261456449038           0.6380610397131377 1.0000   
         C         C         1.0       0.6493993801672355  0.07280373654109253           0.6232075737119074 1.0000   
         C         C         1.0       0.6244100896692841  0.0676869269714189  0.6220286640421462 1.0000   
         C         C         1.0       0.6055580502925568  0.0842790004823015  0.6299160146152106 1.0000   
         C         C         1.0       0.6124546618315656  0.10811989002575899           0.6365511343599559 1.0000   
         C         C         1.0       0.6724531323810463  0.05648951434969806           0.6084060217133358 1.0000   
         C         C         1.0       0.7141491979796907  0.10091178231044676           0.544300379036908  1.0000   
         C         C         1.0       0.7271894426618439  0.08224613796820528           0.5602842416790585 1.0000   
         C         C         1.0       0.713221111573153   0.06646056337144718           0.5773136688543864 1.0000   
         C         C         1.0       0.6883090284839928  0.07064803469728874           0.5827866639751875 1.0000   
         C         C         1.0       0.6755611725269847  0.08757484763793764           0.5636206088713107 1.0000   
         C         C         1.0       0.6888309896636956  0.10369059570457541           0.5464630368099783 1.0000   
         C         C         1.0       0.6657897682092555  0.03265195172324123           0.5879188782515403 1.0000   
         C         C         1.0       0.6830970003451474  0.012847637507940188         0.5875640111159843 1.0000   
         C         C         1.0       0.6622979492839887  0.4839891330633058  0.5622807550811497 1.0000   
         C         C         1.0       0.6598912584228055  0.9922691251211427  0.5467148872570179 1.0000   
         C         C         1.0       0.6413656805819877  0.009473744041529416         0.547402270805228  1.0000   
         C         C         1.0       0.6462835567257796  0.030112081398668833         0.566600768559491  1.0000   
         C         C         1.0       0.6769840631373715  0.030043203119338897         0.6586364156633616 1.0000   
         C         C         1.0       0.6898319853265185  0.02198568939057626           0.6866961227793246 1.0000   
         C         C         1.0       0.7128538125797095  0.031214213102472754         0.6943119110084096 1.0000   
         C         C         1.0       0.7226941826977856  0.049796912940933254         0.6786417359097182 1.0000   
         C         C         1.0       0.7098319237903996  0.05957213780131899           0.653085287500015  1.0000   
         C         C         1.0       0.6872205572070252  0.0494684664534743  0.6414246305742751 1.0000   
         H         H         1.0       0.5824375026217808  0.18349808123838898           0.6496867714024063 1.0000   
         H         H         1.0       0.6205287771123024  0.1353224271732371  0.5849916045938827 1.0000   
         H         H         1.0       0.6251649578079203  0.167553006024448   0.548482227685587  1.0000   
         H         H         1.0       0.5852638420056328  0.21560807411742103           0.6134339888382152 1.0000   
         H         H         1.0       0.5754896259709318  0.10978672729606957           0.5851922488676115 1.0000   
         H         H         1.0       0.5324483597191989  0.10609421016712597           0.5664961864242508 1.0000   
         H         H         1.0       0.5049711373424706  0.1361227567607967  0.6560170046802409 1.0000   
         H         H         1.0       0.5455586061156616  0.1419650716669428  0.6730473590287304 1.0000   
         H         H         1.0       0.6425156142283546  0.1315192181791268  0.6461759011146205 1.0000   
         H         H         1.0       0.6740793363715574  0.10025123437342098           0.6393828971792334 1.0000   
         H         H         1.0       0.6191774397061672  0.049528210517111995         0.6151324097281651 1.0000   
         H         H         1.0       0.5856641790976183  0.07865467473922673           0.6332576985628209 1.0000   
         H         H         1.0       0.7473260299032305  0.08085612737528844           0.5639713207245663 1.0000   
         H         H         1.0       0.7230691849570334  0.05259082495985464           0.5919963376103247 1.0000   
         H         H         1.0       0.655209155355421   0.08861826739441422           0.5625024789279458 1.0000   
         H         H         1.0       0.6800444548452952  0.11791918530903828           0.5326791136925128 1.0000   
         H         H         1.0       0.7012847323041783  0.014576916218125536         0.599098930279373  1.0000   
         H         H         1.0       0.6736647064205484  0.46723278687237557           0.5631506954102536 1.0000   
         H         H         1.0       0.626129361772015   0.008419704963445008         0.5289287833092761 1.0000   
         H         H         1.0       0.6340658336889264  0.04619939252430102           0.5636068256608452 1.0000   
         H         H         1.0       0.6585715149911866  0.023163956577772576         0.6538892418026093 1.0000   
         H         H         1.0       0.6833716921166199  0.006419790394339447         0.7002512741399463 1.0000   
         H         H         1.0       0.7414442580277636  0.05579761163744441           0.684385860412105  1.0000   
         H         H         1.0       0.7182507577402356  0.0748725621483584  0.6417052742633175 1.0000   
         C         C         1.0       0.5418786887879166  0.3572635215918828  0.4244685498639214 1.0000   
         C         C         1.0       0.5553562718255634  0.3483246097045534  0.3993753110106697 1.0000   
         C         C         1.0       0.5807208312351135  0.3516241962825623  0.3985740390722827 1.0000   
         C         C         1.0       0.5931265234525491  0.367038791910867   0.42055148483218907          1.0000   
         C         C         1.0       0.5788356826166303  0.374181904949998   0.4464647815775817 1.0000   
         C         C         1.0       0.5551199053992057  0.37000999856556904           0.44888441917410543          1.0000   
         H         H         1.0       0.5467181243622392  0.3364572651638416  0.3798752423127705 1.0000   
         H         H         1.0       0.5884658631746493  0.3468487831266986  0.3765486578890549 1.0000   
         H         H         1.0       0.5873995658317107  0.38644365086570576           0.46484066827559684          1.0000   
         H         H         1.0       0.5437566899366552  0.3774992959981725  0.4676983118477091 1.0000   
         C         C         1.0       0.6104551151668558  0.4223273519038346  0.42950236696245236          1.0000   
         C         C         1.0       0.6270454768393495  0.4019289821812519  0.4312501011302726 1.0000   
         C         C         1.0       0.6501489470931073  0.40669126286890755           0.44365755348477276          1.0000   
         C         C         1.0       0.6552831621125567  0.42868821503860216           0.459134809879507  1.0000   
         C         C         1.0       0.6370304755389165  0.44716492900945143           0.4621563671801557 1.0000   
         C         C         1.0       0.6139299667560113  0.44377370786680925           0.4461059163369841 1.0000   
         C         C         1.0       0.6207591825165143  0.3766642003172965  0.41501482593842015          1.0000   
         C         C         1.0       0.6267964357834038  0.38230762507063343           0.3775574882258115 1.0000   
         C         C         1.0       0.6519184504477     0.3814997746092274  0.36758505377741646          1.0000   
         C         C         1.0       0.6569980679185791  0.38686402593903735           0.3367491699187105 1.0000   
         C         C         1.0       0.6383451463234576  0.3930576107443638  0.31466215334907494          1.0000   
         C         C         1.0       0.6147723182294101  0.39666628621899647           0.32509775714307165          1.0000   
         C         C         1.0       0.6082057228761608  0.39044723305580303           0.35550060397792976          1.0000   
         C         C         1.0       0.6389580827035568  0.34957599193693023           0.4623229116303633 1.0000   
         C         C         1.0       0.6538824613996436  0.3308781666068975  0.4731587156724923 1.0000   
         C         C         1.0       0.6640272324175347  0.3129408043022244  0.4533934765262866 1.0000   
         C         C         1.0       0.6580253977787524  0.3148467464891815  0.42107200292629227          1.0000   
         C         C         1.0       0.6450123079679609  0.33519014921476625           0.4100647669692905 1.0000   
         C         C         1.0       0.6357623833720173  0.3535801704422715  0.4302789870896443 1.0000   
         C         C         1.0       0.6831681639083017  0.29263648273285253           0.46853621019946146          1.0000   
         C         C         1.0       0.7354298074719275  0.3457608226637622  0.5100424832260714 1.0000   
         C         C         1.0       0.7198395643276914  0.33315986794831337           0.5303307721142556 1.0000   
         C         C         1.0       0.7040530784744691  0.3155997555398167  0.5178203261901679 1.0000   
         C         C         1.0       0.7034404993631042  0.30967480562208116           0.4855223388920875 1.0000   
         C         C         1.0       0.7196619326385626  0.3220747932224657  0.46577403960412406          1.0000   
         C         C         1.0       0.7357140714400618  0.3396318828944529  0.47784810906000774          1.0000   
         C         C         1.0       0.6950692742759433  0.2734564656231367  0.44413658610933376          1.0000   
         C         C         1.0       0.6793961962096121  0.25866691104491957           0.4246451053841276 1.0000   
         C         C         1.0       0.688670525594353   0.24276186855547655           0.4017434190127909 1.0000   
         C         C         1.0       0.713825838244599   0.23971931597735616           0.39900051397205094          1.0000   
         C         C         1.0       0.7291542498691108  0.2511917257841894  0.4205206549762881 1.0000   
         C         C         1.0       0.7195239556604883  0.26710773121088205           0.443760907240811  1.0000   
         C         C         1.0       0.6836833836730726  0.25927276234237895           0.5154504721338656 1.0000   
         C         C         1.0       0.6725719302822902  0.24557903501771647           0.5370163535663879 1.0000   
         C         C         1.0       0.6465282336017629  0.24497294263207037           0.538100295921777  1.0000   
         C         C         1.0       0.6326594333689375  0.2617858036189313  0.5200603990945754 1.0000   
         C         C         1.0       0.6442527836647607  0.2751658713763085  0.49674169262213885          1.0000   
         C         C         1.0       0.6700946427313276  0.275369777183829   0.49408493625826866          1.0000   
         H         H         1.0       0.5906156686706274  0.4218738278236866  0.42051061551022256          1.0000   
         H         H         1.0       0.6652860699320006  0.39334425057544903           0.44494853764775383          1.0000   
         H         H         1.0       0.673377785353852   0.429120967859184   0.4735028332843433 1.0000   
         H         H         1.0       0.5989195554276969  0.4578719230819714  0.4471021690151909 1.0000   
         H         H         1.0       0.6662236498722994  0.3748512228376105  0.38255908334070177          1.0000   
         H         H         1.0       0.6755424754865028  0.38399821910685966           0.3280251533958134 1.0000   
         H         H         1.0       0.6016091455394423  0.40491922033655076           0.30857834477358415          1.0000   
         H         H         1.0       0.590015403249811   0.39162583329647255           0.3655758338323735 1.0000   
         H         H         1.0       0.6316150045235495  0.3621154000833956  0.47871462266951265          1.0000   
         H         H         1.0       0.6552690643383862  0.3293265905783293  0.4994487994665475 1.0000   
         H         H         1.0       0.6654789746688575  0.30236743427525203           0.4024069622387322 1.0000   
         H         H         1.0       0.6424481565903541  0.33581482070938523           0.3856312125056263 1.0000   
         H         H         1.0       0.7181590886547471  0.3368021078853783  0.555454653662862  1.0000   
         H         H         1.0       0.6908515418736999  0.30699468639187477           0.5331542841343854 1.0000   
         H         H         1.0       0.7196396312950141  0.3201615722316877  0.44025224865694995          1.0000   
         H         H         1.0       0.747196261985764   0.35052655002407823           0.4615667278322872 1.0000   
         H         H         1.0       0.6592902049211146  0.25849014874669113           0.4296924869103412 1.0000   
         H         H         1.0       0.6743477596021004  0.23578247168981015           0.3848551884873122 1.0000   
         H         H         1.0       0.7482701473973123  0.24893356739459696           0.4214496271442604 1.0000   
         H         H         1.0       0.73320000942338    0.27656385122805766           0.4601183723949447 1.0000   
         H         H         1.0       0.7035303825711949  0.2592889038684035  0.5133469595444284 1.0000   
         H         H         1.0       0.6855833870494795  0.23454624288948828           0.5519590801531875 1.0000   
         H         H         1.0       0.6120584315330009  0.26250592094516256           0.5221988107158382 1.0000   
         H         H         1.0       0.6318652400330131  0.28782350887990377           0.4852471775028759 1.0000   
         C         C         1.0       0.8776040276571573  0.3886265196532206  0.7436046964077058 1.0000   
         C         C         1.0       0.8831918931757492  0.4084838456022314  0.7256448386823174 1.0000   
         C         C         1.0       0.8828565887756731  0.4063468267374131  0.6931099507146251 1.0000   
         C         C         1.0       0.874180276368185   0.3856025312747056  0.6776764110262335 1.0000   
         C         C         1.0       0.8656540541198968  0.3673026567298264  0.695715835205591  1.0000   
         C         C         1.0       0.8675677648745321  0.36796284197886514           0.7285898353855297 1.0000   
         H         H         1.0       0.89135485748403    0.42440526861334943           0.7374016964361113 1.0000   
         H         H         1.0       0.8895113050633031  0.42273233436830016           0.6805294859728505 1.0000   
         H         H         1.0       0.8565441668650546  0.35106337456408254           0.6874776900406938 1.0000   
         H         H         1.0       0.8577349649583426  0.35461996114300237           0.7434305884030473 1.0000   
         C         C         1.0       0.8758447089851562  0.3391962660670701  0.6283159417282517 1.0000   
         C         C         1.0       0.8644381565319085  0.3612565266788977  0.6212277924168556 1.0000   
         C         C         1.0       0.8464039629084937  0.36117710912799106           0.5955685596335067 1.0000   
         C         C         1.0       0.8429186831942928  0.34096341170634775           0.5765216469121524 1.0000   
         C         C         1.0       0.856009634264583   0.3193328503052326  0.5838573740193009 1.0000   
         C         C         1.0       0.8735686864275242  0.3186787658564894  0.6087150683383127 1.0000   
         C         C         1.0       0.8735947481017772  0.38560399801728795           0.6383803613085877 1.0000   
         C         C         1.0       0.9014089052230635  0.38899546901057014           0.6259170820103555 1.0000   
         C         C         1.0       0.9048149657762751  0.3879061656613376  0.593188419198027  1.0000   
         C         C         1.0       0.9273829526333836  0.38879560977966826           0.5794981145671565 1.0000   
         C         C         1.0       0.9489317742631372  0.3903892674305166  0.5986227441559604 1.0000   
         C         C         1.0       0.9458657899356215  0.38910376820219195           0.6313707433233408 1.0000   
         C         C         1.0       0.9225207346052015  0.38605521174470203           0.6452354343389204 1.0000   
         C         C         1.0       0.8293939713099697  0.40851948710329106           0.6414281696556596 1.0000   
         C         C         1.0       0.8116918578075706  0.42676570267866915           0.6348862331914163 1.0000   
         C         C         1.0       0.8170968629151043  0.4451671732949404  0.613219175587037  1.0000   
         C         C         1.0       0.8409854841597678  0.44398432505469326           0.5998079033570785 1.0000   
         C         C         1.0       0.8580541891596187  0.4254616601265242  0.6066151282414572 1.0000   
         C         C         1.0       0.8532323843261402  0.40734620759213863           0.6280520693012889 1.0000   
         C         C         1.0       0.7957265219619942  0.46478475222132776           0.6023070955169635 1.0000   
         C         C         1.0       0.7554797807034876  0.410923310207359   0.5374289868586705 1.0000   
         C         C         1.0       0.7483052939695911  0.4147502163445182  0.5684338436173575 1.0000   
         C         C         1.0       0.7603408688359017  0.4317188618111816  0.5890481878664235 1.0000   
         C         C         1.0       0.7795574274270182  0.44635107024961407           0.5781988645008215 1.0000   
         C         C         1.0       0.7863215798201413  0.44178223032134256           0.546533378834011  1.0000   
         C         C         1.0       0.7749355502939819  0.42486380380900773           0.5261075730233961 1.0000   
         C         C         1.0       0.8059386552193776  0.4895653931739128  0.5864708888506638 1.0000   
         C         C         1.0       0.8288264103977853  0.001307193739994288         0.5905144662903155 1.0000   
         C         C         1.0       0.8403497157667276  0.021914595538341533         0.5766420108348926 1.0000   
         C         C         1.0       0.8278447054172339  0.03129770797214251           0.5490468912100556 1.0000   
         C         C         1.0       0.8038496461463794  0.024117042564994452         0.5405785078571181 1.0000   
         C         C         1.0       0.7952154705408231  0.49851903271456915           0.5593567618587187 1.0000   
         C         C         1.0       0.7552695611235516  0.4851446099359119  0.6253680138217002 1.0000   
         C         C         1.0       0.7409946151731757  0.4911020485006838  0.6497779732357392 1.0000   
         C         C         1.0       0.7502721477584487  0.49109421788222063           0.6805552331880821 1.0000   
         C         C         1.0       0.774779225035609   0.48471459660368366           0.6867064538337876 1.0000   
         C         C         1.0       0.7887009284779433  0.47567445413825044           0.6623859555620841 1.0000   
         C         C         1.0       0.7790067325612062  0.4758802302702049  0.6305499686563526 1.0000   
         H         H         1.0       0.8899440433912942  0.33898487539710137           0.6473933624218516 1.0000   
         H         H         1.0       0.8393314138141751  0.3784277978351142  0.585899614985923  1.0000   
         H         H         1.0       0.8292714842010761  0.34174413863696906           0.556525275722307  1.0000   
         H         H         1.0       0.887169188253489   0.3045239788111302  0.6115898738516525 1.0000   
         H         H         1.0       0.8889935638484423  0.3853810390998442  0.5773178986665302 1.0000   
         H         H         1.0       0.9272440948555346  0.39062934608877553           0.553166047428576  1.0000   
         H         H         1.0       0.9632320875644257  0.3880502612736189  0.6466974785823555 1.0000   
         H         H         1.0       0.9205787556866135  0.38163889619512176           0.6692705142365758 1.0000   
         H         H         1.0       0.8236710414909916  0.3933702472637317  0.6561762438704907 1.0000   
         H         H         1.0       0.7939076798998039  0.42493785194916267           0.6463168239813221 1.0000   
         H         H         1.0       0.844782260508511   0.45650256806539097           0.5802519463728276 1.0000   
         H         H         1.0       0.8755827055677231  0.4258669028689128  0.5941952998503662 1.0000   
         H         H         1.0       0.7326101780754569  0.4032852629082254  0.5756682489705048 1.0000   
         H         H         1.0       0.7535202863342252  0.4322020685537016  0.6128761857236076 1.0000   
         H         H         1.0       0.8018116853159387  0.4517353001214767  0.5368273142327157 1.0000   
         H         H         1.0       0.7808334198126212  0.42261377871309824           0.5019287503163508 1.0000   
         H         H         1.0       0.8354366328559815  0.49514712049621706           0.6220432565058738 1.0000   
         H         H         1.0       0.8577832941376858  0.027292846122574706         0.5855761555643889 1.0000   
         H         H         1.0       0.7929565674478033  0.034129533465106374         0.5231559604494896 1.0000   
         H         H         1.0       0.7790861645866552  0.4883629985881306  0.5495564011845865 1.0000   
         H         H         1.0       0.7457663206444654  0.48627528487470906           0.6005847229837001 1.0000   
         H         H         1.0       0.7207431652798784  0.4939226728778595  0.6456012301176907 1.0000   
         H         H         1.0       0.7832578364301266  0.4846964471907874  0.7096899909648161 1.0000   
         H         H         1.0       0.8079763254422756  0.46850108462317225           0.6672537225106062 1.0000   
         C         C         1.0       0.046093502298792555          0.12476669937910052          0.11266990845080718          1.0000   
         C         C         1.0       0.06131406630467521           0.12873055484475637          0.13918015325669172          1.0000   
         C         C         1.0       0.08758999753538173           0.12657755735934875          0.1368461018413951 1.0000   
         C         C         1.0       0.09776297177327915           0.11585559050977799          0.11043898326883199          1.0000   
         C         C         1.0       0.08254272552800479           0.1122385465891636 0.08337336047233873          1.0000   
         C         C         1.0       0.05724942967416585           0.11616172951859502          0.08441774432461685          1.0000   
         H         H         1.0       0.05582879427831059           0.13528097972895503          0.16134030936365445          1.0000   
         H         H         1.0       0.09963222067510376           0.13158525311405847          0.15669921875021986          1.0000   
         H         H         1.0       0.09106647931785765           0.10524319098859605          0.06087423610702975          1.0000   
         H         H         1.0       0.04720599264698433           0.11373087163704929          0.06119458951411592          1.0000   
         C         C         1.0       0.12303166782490545           0.06744465740033434          0.07459724138258135          1.0000   
         C         C         1.0       0.1370977873407146  0.08664581671219962           0.08556553137896718          1.0000   
         C         C         1.0       0.16134945880232884           0.08959809273367612          0.07514731605760586          1.0000   
         C         C         1.0       0.17059643194315108           0.07268455360863615          0.05275194926240923          1.0000   
         C         C         1.0       0.15776412267884932           0.05212630424632913          0.04578841014232232          1.0000   
         C         C         1.0       0.13347174394552946           0.04914357046013598          0.05558553398978146          1.0000   
         C         C         1.0       0.12685550152610647           0.10711345265342147          0.11076948524678759          1.0000   
         C         C         1.0       0.1336593102001599  0.09401723309574796           0.14136512003726112          1.0000   
         C         C         1.0       0.15804004716342948           0.09500405539276152          0.15615134896955893          1.0000   
         C         C         1.0       0.1617490384700619  0.08860133617835797           0.18718557358476162          1.0000   
         C         C         1.0       0.1414247892802305  0.07926417406623787           0.2041648837677653 1.0000   
         C         C         1.0       0.11909223904713125           0.07314899503146408          0.18828270615344234          1.0000   
         C         C         1.0       0.1157669721098769  0.07979416891845527           0.15702175140009494          1.0000   
         C         C         1.0       0.13765962779513202           0.14521761576667266          0.07503962981501115          1.0000   
         C         C         1.0       0.1541790174435796  0.16430725701900908           0.06878041924511566          1.0000   
         C         C         1.0       0.17082310371045115           0.17266049147807463          0.0912657690193702 1.0000   
         C         C         1.0       0.1682082017162765  0.1636139457108737  0.12243131546994179          1.0000   
         C         C         1.0       0.15088617561680503           0.14606665836714192          0.12886140692452924          1.0000   
         C         C         1.0       0.13841860379784532           0.13341629362365437          0.10479988835880244          1.0000   
         C         C         1.0       0.1957439744665532  0.18602524134976298           0.0802489489835266 1.0000   
         C         C         1.0       0.22970960046809394           0.11972095802301562          0.037072868001858106         1.0000   
         C         C         1.0       0.21971776213627262           0.13783198307532438          0.01762044253713662          1.0000   
         C         C         1.0       0.21123039455539677           0.16014568731588225          0.03098963066052165          1.0000   
         C         C         1.0       0.20903981739823663           0.16218696199995317          0.06392683940739706          1.0000   
         C         C         1.0       0.216793021256128   0.14272432242457278           0.08297294578059466          1.0000   
         C         C         1.0       0.22651327440872926           0.12155452936046467          0.06909101043329731          1.0000   
         C         C         1.0       0.21248465161612645           0.19616045193436885          0.10888800294564312          1.0000   
         C         C         1.0       0.20180512224450683           0.21287930233297936          0.13082761776611704          1.0000   
         C         C         1.0       0.21546944165126516           0.22198051453276751          0.1561165719186487 1.0000   
         C         C         1.0       0.23967066048787444           0.214382803189298  0.16119193199712037          1.0000   
         C         C         1.0       0.25115722954980746           0.19827443355793573          0.1401598036327648 1.0000   
         C         C         1.0       0.23752852926900936           0.1900761129169449 0.11374797757504777          1.0000   
         C         C         1.0       0.2124283736348254  0.2210892726282742  0.0470838659027296 1.0000   
         C         C         1.0       0.20897493415677987           0.24341744038355248          0.030762198511635804         1.0000   
         C         C         1.0       0.18623438161803885           0.2534391008449211 0.02508277809000197          1.0000   
         C         C         1.0       0.16577019847316288           0.24174159507719686          0.0373733922224687 1.0000   
         C         C         1.0       0.16801731028752787           0.22065956825578623          0.05361868834248993          1.0000   
         C         C         1.0       0.19102240688461605           0.20964877960920578          0.05821033819447732          1.0000   
         H         H         1.0       0.10403763440820324           0.06650003078423032          0.08196042578198294          1.0000   
         H         H         1.0       0.17407354352473917           0.10559321155407893          0.08080720102664021          1.0000   
         H         H         1.0       0.18786543431997196           0.07871154070094365          0.04312660998308287          1.0000   
         H         H         1.0       0.12353522437186645           0.032769553714655675         0.048279803890454914         1.0000   
         H         H         1.0       0.17223607116921344           0.10249065971785129          0.14243030187539932          1.0000   
         H         H         1.0       0.1779070380743437  0.09491009612037957           0.20027258217069574          1.0000   
         H         H         1.0       0.1043315103214208  0.06452619098220445           0.20179002721122083          1.0000   
         H         H         1.0       0.09860561263637553           0.07434726159053463          0.14303979934150374          1.0000   
         H         H         1.0       0.12486040008062843           0.1373030584147194 0.05709258988277402          1.0000   
         H         H         1.0       0.15804174136076962           0.16722496917606483          0.044359497025929596         1.0000   
         H         H         1.0       0.1806248713636248  0.1685123986567115  0.14203865545571387          1.0000   
         H         H         1.0       0.15201184968735235           0.13912695836173544          0.15275802441893846          1.0000   
         H         H         1.0       0.21926959465838772           0.13351936072643505          0.992081691151919  1.0000   
         H         H         1.0       0.20352909959801527           0.17404600326898959          0.015300117384457662         1.0000   
         H         H         1.0       0.21624408356824773           0.14256381851113242          0.10917876048974395          1.0000   
         H         H         1.0       0.23239310089217424           0.10708650067642533          0.08414301272292411          1.0000   
         H         H         1.0       0.18231082829580775           0.21713469769018498          0.12775423706541533          1.0000   
         H         H         1.0       0.2083785164891784  0.23619330281486228           0.17219528685491647          1.0000   
         H         H         1.0       0.2722631471026043  0.19624623341120115           0.14121344262755134          1.0000   
         H         H         1.0       0.24943181031214867           0.180612011136488  0.09769035617073588          1.0000   
         H         H         1.0       0.23082348478338421           0.21199392780327583          0.04915458137047963          1.0000   
         H         H         1.0       0.22588203535460114           0.2511035617767212 0.022732560962348082         1.0000   
         H         H         1.0       0.1469486023402519  0.25228679339564997           0.03631688658805208          1.0000   
         H         H         1.0       0.15013237402116464           0.21396631792766832          0.061223382078073076         1.0000   
         C         C         1.0       0.3997886376253861  0.1309768383009616  0.8201439656401092 1.0000   
         C         C         1.0       0.41677351737661605           0.1127113095509654 0.8303268698710224 1.0000   
         C         C         1.0       0.42276317528599966           0.11089576059104982          0.8638549664171689 1.0000   
         C         C         1.0       0.412337725027436   0.1276061868013949  0.8846420034050475 1.0000   
         C         C         1.0       0.39474762824254167           0.14521406339395623          0.8737092941940612 1.0000   
         C         C         1.0       0.39021000899673597           0.14735065749051138          0.842332804249973  1.0000   
         H         H         1.0       0.4236727036851263  0.09758961281435205           0.8133105316006366 1.0000   
         H         H         1.0       0.43876862060763894           0.09961999609657456          0.8729109561637038 1.0000   
         H         H         1.0       0.3864915064452765  0.15851868323221005           0.8895853315100012 1.0000   
         H         H         1.0       0.3806461084449849  0.1629621251914281  0.8348605100803909 1.0000   
         C         C         1.0       0.4218911621843468  0.17300653822459583           0.9330435260155159 1.0000   
         C         C         1.0       0.41613378307325116           0.14922295833862004          0.9435194727815109 1.0000   
         C         C         1.0       0.40845314153784246           0.14660763629571055          0.9749310844220781 1.0000   
         C         C         1.0       0.4040022278925963  0.16693571248498137           0.993796408741584  1.0000   
         C         C         1.0       0.4069079786785396  0.19087478023448737           0.981900124408292  1.0000   
         C         C         1.0       0.4168910824627362  0.1934058208751129  0.9515905326903301 1.0000   
         C         C         1.0       0.41788056388779177           0.12467392229106596          0.9216370227286866 1.0000   
         C         C         1.0       0.4461892977834852  0.11838016227711362           0.9317246563174673 1.0000   
         C         C         1.0       0.45166092646511474           0.10447358899834176          0.95808246378368   1.0000   
         C         C         1.0       0.47582246255813115           0.09863434059744311          0.9678165900804526 1.0000   
         C         C         1.0       0.49548373618399016           0.10803208584482915          0.9518694282100821 1.0000   
         C         C         1.0       0.4904576672874973  0.12165241549095039           0.924919236635405  1.0000   
         C         C         1.0       0.4663549218032943  0.12825956425212748           0.9145203998142821 1.0000   
         C         C         1.0       0.3735778767199594  0.10944696026648293           0.9336693078783715 1.0000   
         C         C         1.0       0.35478307316783836           0.09300634730120932          0.9399633731107502 1.0000   
         C         C         1.0       0.36163131177287894           0.06773730449793544          0.9421387679758406 1.0000   
         C         C         1.0       0.38562969190662716           0.060859267088041596         0.9337109479989639 1.0000   
         C         C         1.0       0.4034588902446734  0.07789318475920014           0.9287570724476978 1.0000   
         C         C         1.0       0.3984998909841499  0.1030386710960436  0.930168727588184  1.0000   
         C         C         1.0       0.3405147250152395  0.04870122079794738           0.952401517997465  1.0000   
         C         C         1.0       0.2874902695149565  0.07110855949656848           0.026440903656632247         1.0000   
         C         C         1.0       0.28134686755910654           0.05296605600950816          0.004082486994583552         1.0000   
         C         C         1.0       0.2976799692023231  0.04668375984629483           0.9792053438547321 1.0000   
         C         C         1.0       0.3207601409799756  0.05817289926352245           0.9772151250676407 1.0000   
         C         C         1.0       0.32740258668870664           0.0745407811895993 0.0021856265654601275        1.0000   
         C         C         1.0       0.3113780547418963  0.08238846982442324           0.024784017956691985         1.0000   
         C         C         1.0       0.35221413597742096           0.02600685258236574          0.971824505435801  1.0000   
         C         C         1.0       0.32467134582134016           0.4911114755642951 0.9490726467921594 1.0000   
         C         C         1.0       0.3285962166366845  0.4721967744990247  0.9707460441342648 1.0000   
         C         C         1.0       0.349669795234165   0.471894292325604   0.9915632166647881 1.0000   
         C         C         1.0       0.3833360930896169  0.009064147751457462         0.00820314929974427          1.0000   
         C         C         1.0       0.3729601893804147  0.02845958163981532           0.9927694850669811 1.0000   
         C         C         1.0       0.33957668082942005           0.025822232299709317         0.895907314660253  1.0000   
         C         C         1.0       0.32978455666775147           0.022678578174845428         0.8665064631959454 1.0000   
         C         C         1.0       0.30758876647548616           0.03346740650208055          0.8571304049117052 1.0000   
         C         C         1.0       0.2964590611544144  0.04988839686387708           0.8774715215568734 1.0000   
         C         C         1.0       0.30792142670915135           0.055954517736398604         0.9065922359503803 1.0000   
         C         C         1.0       0.32882628392781466           0.04263416083382998          0.9183348700271932 1.0000   
         H         H         1.0       0.4302456510379133  0.17656440290019043           0.9104933228546848 1.0000   
         H         H         1.0       0.40192292563910614           0.1281363313774842 0.9806610568831314 1.0000   
         H         H         1.0       0.39853042195156724           0.16531494498318122          0.018644661361988397         1.0000   
         H         H         1.0       0.4208909647404807  0.21120406941321596           0.9437941233352056 1.0000   
         H         H         1.0       0.43645959082619373           0.09730898483848152          0.9728920554044044 1.0000   
         H         H         1.0       0.4777638767940282  0.08969166697726684           0.9908147387014565 1.0000   
         H         H         1.0       0.5065004275732254  0.13005760498808513           0.9122924583585618 1.0000   
         H         H         1.0       0.4648191158572268  0.13980492034120137           0.893115554972461  1.0000   
         H         H         1.0       0.3682321228162584  0.12798973874668765           0.9388662925085701 1.0000   
         H         H         1.0       0.3363143267464928  0.099562596368844   0.9473970572392574 1.0000   
         H         H         1.0       0.3875424406137429  0.041386214230553796         0.9325374040159706 1.0000   
         H         H         1.0       0.4213740318776962  0.07077776816441622           0.9226196177773538 1.0000   
         H         H         1.0       0.262588687599136   0.0445239117619599  0.0026334902079857346        1.0000   
         H         H         1.0       0.29313156413032804           0.030810503428920426         0.9624007561551554 1.0000   
         H         H         1.0       0.34698065134145883           0.081497864687275  0.001989598680739298         1.0000   
         H         H         1.0       0.3157955990427342  0.09707229233249239           0.04050355379504025          1.0000   
         H         H         1.0       0.3068151962904477  0.49120029468943627           0.9354629037550973 1.0000   
         H         H         1.0       0.31409874099809193           0.4582114621528333 0.9718599903171723 1.0000   
         H         H         1.0       0.40032319076107825           0.00997328297640507          0.022663627659983566         1.0000   
         H         H         1.0       0.3806847754822995  0.04682857531163936           0.9936041352756166 1.0000   
         H         H         1.0       0.3581808089587804  0.018414994668963715         0.9027648270994166 1.0000   
         H         H         1.0       0.33870202159089596           0.011422308642249726         0.8493960320490331 1.0000   
         H         H         1.0       0.277730245046037   0.057751799530982466         0.8721960627277406 1.0000   
         H         H         1.0       0.300280295959791   0.06997857154108364           0.9199707312714474 1.0000   
         C         C         1.0       0.12694188492844832           0.3710816338909477 0.8055389323131419 1.0000   
         C         C         1.0       0.12694171060461398           0.39235080735771966          0.8231117653785052 1.0000   
         C         C         1.0       0.13422654318704177           0.39098096476458233          0.8549380102075376 1.0000   
         C         C         1.0       0.14083896037176577           0.36893731372345734          0.8697039677356276 1.0000   
         C         C         1.0       0.14283332818296776           0.3490067317209437 0.8506241320523716 1.0000   
         C         C         1.0       0.1366449506382117  0.34992215996328985           0.8189511922609847 1.0000   
         H         H         1.0       0.12157744944446022           0.4095092555249616 0.8113972398969654 1.0000   
         H         H         1.0       0.1327180044217183  0.4073194997838416  0.86974415465924   1.0000   
         H         H         1.0       0.15143343434228795           0.33268575764738917          0.8600404720519396 1.0000   
         H         H         1.0       0.1385207914691986  0.3331959428974776  0.803494899194298  1.0000   
         C         C         1.0       0.14523789691278083           0.3212479813090545 0.9192776028076046 1.0000   
         C         C         1.0       0.15941362382538166           0.3425425578455566 0.9228917308255616 1.0000   
         C         C         1.0       0.1811440585603981  0.34116619788249425           0.9413167051147726 1.0000   
         C         C         1.0       0.18995927649229094           0.32156596789626923          0.9558997838685143 1.0000   
         C         C         1.0       0.17540348925146648           0.3003847285151663 0.9533499297073648 1.0000   
         C         C         1.0       0.15417702065650912           0.29966623603345927          0.9333829561036424 1.0000   
         C         C         1.0       0.14661535782703633           0.36838461754647933          0.9086648511138358 1.0000   
         C         C         1.0       0.12001724249297385           0.3733859874179495 0.925388457683018  1.0000   
         C         C         1.0       0.11796274675422683           0.36821744530367295          0.9577451915755987 1.0000   
         C         C         1.0       0.09459127017892847           0.3714311813262451 0.9727193653994785 1.0000   
         C         C         1.0       0.07374215263107847           0.3799886002164431 0.9567409968744617 1.0000   
         C         C         1.0       0.0767297640729665  0.3853752799964467  0.925113833028478  1.0000   
         C         C         1.0       0.09911325329927771           0.381531302403919  0.9104855888096993 1.0000   
         C         C         1.0       0.1886332846726318  0.39017783411517815           0.8969326604802761 1.0000   
         C         C         1.0       0.20573073538633602           0.40929210517063724          0.9007601687852148 1.0000   
         C         C         1.0       0.201859904486258   0.4283718651251956  0.9220566411793205 1.0000   
         C         C         1.0       0.1792325514256172  0.428356073965176   0.9383479027084902 1.0000   
         C         C         1.0       0.16114040509007305           0.4106974197333306 0.9338429870438206 1.0000   
         C         C         1.0       0.1664449960670962  0.3902152728824114  0.9148516578547087 1.0000   
         C         C         1.0       0.22119268171127004           0.45036342408834695          0.9285886764802268 1.0000   
         C         C         1.0       0.25904410937972755           0.4091894439439302 0.006249601038128579         1.0000   
         C         C         1.0       0.26796958563422113           0.40754988133474807          0.9764907051406049 1.0000   
         C         C         1.0       0.2578898979324076  0.4220274646149086  0.9522571095268778 1.0000   
         C         C         1.0       0.23552544696964695           0.4364683179223285 0.9567483331179708 1.0000   
         C         C         1.0       0.2246755558656427  0.4341901513470161  0.9869875750871507 1.0000   
         C         C         1.0       0.23706544204516858           0.42195335687152385          0.012229602313067156         1.0000   
         C         C         1.0       0.20977076347104456           0.4766706498448644 0.9404389907931957 1.0000   
         C         C         1.0       0.18748788495799382           0.4857719801533932 0.9245684199338174 1.0000   
         C         C         1.0       0.17651510565736678           0.009598717856971774         0.9445119562004197 1.0000   
         C         C         1.0       0.1867656920512132  0.021306809148596305         0.9713107590517795 1.0000   
         C         C         1.0       0.21047749869385116           0.015583599121609771         0.9797806885034034 1.0000   
         C         C         1.0       0.22135503596346742           0.49196923563350936          0.962901777850286  1.0000   
         C         C         1.0       0.2620854223220651  0.4646961750254764  0.9017101885172216 1.0000   
         C         C         1.0       0.27524484996597426           0.46815305211596936          0.8748204677187181 1.0000   
         C         C         1.0       0.2644193888714635  0.46678984250811667           0.8435779310032769 1.0000   
         C         C         1.0       0.23896549887321739           0.4627465321020288 0.8396976450728505 1.0000   
         C         C         1.0       0.22505076125171897           0.4600899279617204 0.8677812935439244 1.0000   
         C         C         1.0       0.2365488441194058  0.4584685868061239  0.8982878053224342 1.0000   
         H         H         1.0       0.12787561355968843           0.3200194889822669 0.9064936149504625 1.0000   
         H         H         1.0       0.19437420411196688           0.35730621631793386          0.9469930753711286 1.0000   
         H         H         1.0       0.20836982196856899           0.32058394077107094          0.966614521772846  1.0000   
         H         H         1.0       0.14383914190688765           0.28290131400679375          0.9286900712976474 1.0000   
         H         H         1.0       0.1339542756260321  0.3662335949654727  0.9734823153614421 1.0000   
         H         H         1.0       0.09607501691235536           0.36690213030848207          0.9982445354304169 1.0000   
         H         H         1.0       0.06021130642503412           0.3903357111308733 0.91181024186682   1.0000   
         H         H         1.0       0.09487837010990431           0.38383393646298164          0.8853801221840217 1.0000   
         H         H         1.0       0.1914464131431517  0.37379598703712746           0.8816445104049411 1.0000   
         H         H         1.0       0.2232441926718074  0.4090707450160547  0.8889377131266057 1.0000   
         H         H         1.0       0.1757042765485939  0.44385918444334355           0.9547700859741245 1.0000   
         H         H         1.0       0.1458057685720023  0.4106054168524054  0.9497566474248358 1.0000   
         H         H         1.0       0.28383139122072903           0.3958989732726584 0.9715433958646479 1.0000   
         H         H         1.0       0.2668523220710326  0.4199603632747209  0.9289708095728063 1.0000   
         H         H         1.0       0.20706818650267525           0.4438244559101279 0.9919477379124443 1.0000   
         H         H         1.0       0.22874921057994202           0.4201915616411193 0.03493673888609979          1.0000   
         H         H         1.0       0.1773428680086878  0.4759626097932106  0.9048614050632063 1.0000   
         H         H         1.0       0.15815673146777556           0.014314827671258471         0.9354337858745932 1.0000   
         H         H         1.0       0.22046966122101766           0.02602695425278878          0.999503876130765  1.0000   
         H         H         1.0       0.23825509623616672           0.4847930371477703 0.975231960512528  1.0000   
         H         H         1.0       0.27042379764522906           0.4666890556821949 0.9247167156904387 1.0000   
         H         H         1.0       0.29445381329198134           0.4709548403121241 0.8770366175174565 1.0000   
         H         H         1.0       0.22763744294317703           0.4617389717437041 0.8173804241872519 1.0000   
         H         H         1.0       0.20504359907775124           0.4576056138742431 0.8659586368715892 1.0000   
         C         C         1.0       0.4676116785828153  0.3705130333696025  0.1276570914015657 1.0000   
         C         C         1.0       0.45507905265792503           0.362073412551445  0.15362575513143376          1.0000   
         C         C         1.0       0.42981915295836465           0.3662578022038235 0.15655289981455994          1.0000   
         C         C         1.0       0.4158614622316345  0.37935415419457635           0.1329347182649597 1.0000   
         C         C         1.0       0.42801576627929905           0.3850468789435696 0.10605843004520485          1.0000   
         C         C         1.0       0.4535357444277385  0.3816946810245151  0.10297388541227329          1.0000   
         H         H         1.0       0.46511257590485544           0.35302049315341394          0.17220423447609454          1.0000   
         H         H         1.0       0.4211067546898668  0.3622217883521128  0.17812533927584887          1.0000   
         H         H         1.0       0.4189126674182344  0.3916703078474969  0.08489864449438256          1.0000   
         H         H         1.0       0.46252207885111124           0.38755940672116346          0.08195674767747284          1.0000   
         C         C         1.0       0.38868498128754797           0.42650956232644   0.11297485402272997          1.0000   
         C         C         1.0       0.37403814651329903           0.4056845142599108 0.1177872859472116 1.0000   
         C         C         1.0       0.34990449763138487           0.40663587327037365          0.10368785286442808          1.0000   
         C         C         1.0       0.3430759203992124  0.4237074421578303  0.08246808898241902          1.0000   
         C         C         1.0       0.358636352855796   0.4427213907520884  0.07589875072597808          1.0000   
         C         C         1.0       0.38062732867431015           0.4457054021967622 0.09444648476111388          1.0000   
         C         C         1.0       0.3853414804753917  0.38311968356230197           0.1375428792992546 1.0000   
         C         C         1.0       0.3783412674025763  0.3929351191608315  0.17190049165002444          1.0000   
         C         C         1.0       0.3542943490614622  0.39090144544075756           0.18272112103927443          1.0000   
         C         C         1.0       0.34810609277964727           0.39346309150791664          0.2141277120073779 1.0000   
         C         C         1.0       0.3671641694060513  0.3983717776530348  0.23613602650731916          1.0000   
         C         C         1.0       0.39158939572308316           0.40328380705381855          0.22657284609720926          1.0000   
         C         C         1.0       0.39606663260220143           0.4026944196585531 0.19395620313504394          1.0000   
         C         C         1.0       0.3729234119854393  0.35182281946762683           0.09467259581840554          1.0000   
         C         C         1.0       0.36176359206959835           0.3306762808572494 0.0840418727158972 1.0000   
         C         C         1.0       0.3505852728090146  0.31530966089045015           0.10529246780432679          1.0000   
         C         C         1.0       0.35431472258578334           0.3202126407983383 0.13611452211674596          1.0000   
         C         C         1.0       0.36619463003349445           0.3402780025615927 0.14733446874558992          1.0000   
         C         C         1.0       0.3748558982712172  0.357219610970814   0.1267929955906703 1.0000   
         C         C         1.0       0.32971311995862845           0.2949416471014836 0.09071201634972659          1.0000   
         C         C         1.0       0.2745656315930635  0.34924330439199974           0.0532522607645093 1.0000   
         C         C         1.0       0.2888920827901606  0.3347718911537341  0.033911691863406916         1.0000   
         C         C         1.0       0.3053383284306172  0.3181432864058935  0.04612215482183754          1.0000   
         C         C         1.0       0.3086426174023692  0.31451513539840376           0.07907510941871125          1.0000   
         C         C         1.0       0.2939581099877437  0.32903825458051683           0.09895471906114793          1.0000   
         C         C         1.0       0.27727098289125224           0.3468025696976411 0.08569734193691136          1.0000   
         C         C         1.0       0.3184091446632311  0.27564974623531074           0.11884913529957376          1.0000   
         C         C         1.0       0.3321335349034016  0.2620573477295946  0.14061857040835055          1.0000   
         C         C         1.0       0.3226640231452266  0.24578771663854332           0.1616688321532881 1.0000   
         C         C         1.0       0.2963254437500332  0.24360478308433905           0.16139873313599826          1.0000   
         C         C         1.0       0.28189850750437895           0.2549927316299152 0.13876229924707142          1.0000   
         C         C         1.0       0.29271099182845306           0.27115603645913816          0.117360112477757  1.0000   
         C         C         1.0       0.32551522954966444           0.26263670788968446          0.047086638600902946         1.0000   
         C         C         1.0       0.3345299429459781  0.2450065577209612  0.02673075130481115          1.0000   
         C         C         1.0       0.359850638298927   0.23869725782881326           0.02588430546645549          1.0000   
         C         C         1.0       0.37616420255465205           0.25114718371145606          0.04708928185712154          1.0000   
         C         C         1.0       0.3668910022491174  0.2678727448863349  0.06931844926500703          1.0000   
         C         C         1.0       0.34210421203002406           0.27498039889793585          0.06797122056699331          1.0000   
         H         H         1.0       0.4060285226542457  0.42916105312231984           0.12430701462259763          1.0000   
         H         H         1.0       0.33758647361033123           0.3917614595480694 0.11083830741897771          1.0000   
         H         H         1.0       0.3241061962668842  0.4204922955719604  0.07113384635852099          1.0000   
         H         H         1.0       0.3926494367050119  0.46166751763375097           0.09248205594112764          1.0000   
         H         H         1.0       0.3393859273056212  0.3835084157813355  0.1660331355770334 1.0000   
         H         H         1.0       0.3287502113960516  0.3900025819256745  0.22503815890129433          1.0000   
         H         H         1.0       0.40596464757869855           0.4069428025188283 0.24436600907625655          1.0000   
         H         H         1.0       0.41534578721690263           0.40571011728032363          0.18702649168204646          1.0000   
         H         H         1.0       0.3832948621531432  0.3605985558625936  0.07500312047866907          1.0000   
         H         H         1.0       0.3603841971381445  0.3253904642363535  0.05833264774916707          1.0000   
         H         H         1.0       0.34676225762880736           0.30909981306517553          0.15340944763280948          1.0000   
         H         H         1.0       0.36648605654883454           0.34377561412418517          0.17192499836260663          1.0000   
         H         H         1.0       0.29002052432648295           0.33808005988822154          0.00901514151630715          1.0000   
         H         H         1.0       0.3165558387365586  0.30972915938052603           0.028326416206115288         1.0000   
         H         H         1.0       0.29837024738327567           0.32963332778134763          0.1253215552101835 1.0000   
         H         H         1.0       0.26552062916014596           0.3580326459955558 0.10114696280593909          1.0000   
         H         H         1.0       0.351684694898592   0.2666746727353856  0.14339763076664716          1.0000   
         H         H         1.0       0.33506430710948304           0.23470210214667978          0.1760517229268127 1.0000   
         H         H         1.0       0.2619317193769784  0.2525897788658219  0.13405536617608363          1.0000   
         H         H         1.0       0.28187168426962295           0.2780569756387584 0.09802742242656516          1.0000   
         H         H         1.0       0.3063481711750388  0.26534416288551294           0.04592059238890424          1.0000   
         H         H         1.0       0.3211051730428848  0.23810226172506888           0.008750015506109663         1.0000   
         H         H         1.0       0.3959954688529346  0.24576594076679809           0.04654867519131473          1.0000   
         H         H         1.0       0.3798026961434063  0.2757878423326984  0.08865216053139005          1.0000   
         C         C         1.0       0.039088030886406694          0.14591784507693703          0.41154715254319274          1.0000   
         C         C         1.0       0.04762698511333933           0.14958352087096458          0.3803126816223647 1.0000   
         C         C         1.0       0.07173408479596445           0.1449702882999495 0.37295104583616184          1.0000   
         C         C         1.0       0.0875367821798256  0.13309006569727705           0.3947094071547872 1.0000   
         C         C         1.0       0.07900006407388029           0.1296372616658211 0.4262517190565845 1.0000   
         C         C         1.0       0.055471213637401935          0.1376654746472248 0.43476645658767243          1.0000   
         H         H         1.0       0.035487914071157665          0.15556271456519732          0.3616123326323091 1.0000   
         H         H         1.0       0.077757357008951   0.1474524744089429  0.3477465390901971 1.0000   
         H         H         1.0       0.09112506455101933           0.12522578136496582          0.44535297524149486          1.0000   
         H         H         1.0       0.04902129782729206           0.13348105023822893          0.4578771365476583 1.0000   
         C         C         1.0       0.12732294220265555           0.17468225345261318          0.38651665671243296          1.0000   
         C         C         1.0       0.1290492774442402  0.15257609271986883           0.4014392956023439 1.0000   
         C         C         1.0       0.13942363294758897           0.15303017120499274          0.43211646848751817          1.0000   
         C         C         1.0       0.14847916244249473           0.17373362647082072          0.44673329975774806          1.0000   
         C         C         1.0       0.14766887687310906           0.1952613843273041 0.4308493214167371 1.0000   
         C         C         1.0       0.13918867658550796           0.19472253469851394          0.3992067870233325 1.0000   
         C         C         1.0       0.11628319861762748           0.12838803793818643          0.3857262203022236 1.0000   
         C         C         1.0       0.12064222933370662           0.1239307036053572 0.3481770169409234 1.0000   
         C         C         1.0       0.14247786146553007           0.13192587113536441          0.33427908185419325          1.0000   
         C         C         1.0       0.14668001440463088           0.12708026849408297          0.3023030117220394 1.0000   
         C         C         1.0       0.13180860396578412           0.11068032402101756          0.2854754107714711 1.0000   
         C         C         1.0       0.11194814592107016           0.1005446933044576 0.2993875231289298 1.0000   
         C         C         1.0       0.1056563416334257  0.10698726864395919           0.3306055165209803 1.0000   
         C         C         1.0       0.11776257509896712           0.08474213707835498          0.41381130603462724          1.0000   
         C         C         1.0       0.13220311594062817           0.06843394248810744          0.43225936951510313          1.0000   
         C         C         1.0       0.15791309088282085           0.06873046513637125          0.4338255234218648 1.0000   
         C         C         1.0       0.16954442678157952           0.08596266427089144          0.41586992583019805          1.0000   
         C         C         1.0       0.15594994074855006           0.10363866920021819          0.3991836435618624 1.0000   
         C         C         1.0       0.12923322490745487           0.10373490546939558          0.39826482264391927          1.0000   
         C         C         1.0       0.17475157094966737           0.05202910733421798          0.45917546983650287          1.0000   
         C         C         1.0       0.19210659013814704           0.11456834762706013          0.5240304526458516 1.0000   
         C         C         1.0       0.1721692586959381  0.10026536664690568           0.5297949034364144 1.0000   
         C         C         1.0       0.16543308733276307           0.08122360430365114          0.508963781943592  1.0000   
         C         C         1.0       0.18050261540263415           0.07338114354087559          0.4842883343880559 1.0000   
         C         C         1.0       0.20187471747942548           0.08796543373804604          0.48019332910529955          1.0000   
         C         C         1.0       0.20805275650865251           0.10725199045153191          0.49955783293535866          1.0000   
         C         C         1.0       0.19852069569899977           0.039683378022763456         0.4428402897473025 1.0000   
         C         C         1.0       0.19739390428887232           0.03134518008286157          0.41175217281477844          1.0000   
         C         C         1.0       0.21894474407090167           0.02403104553588475          0.3961181323967298 1.0000   
         C         C         1.0       0.24098635625248843           0.021302681967484666         0.41206664528067294          1.0000   
         C         C         1.0       0.24081508772786617           0.025513127569481254         0.4459778973205721 1.0000   
         C         C         1.0       0.21989344287858917           0.034831052841740165         0.46029066129602714          1.0000   
         C         C         1.0       0.16677112801499863           0.022316137995102566         0.5052753434666286 1.0000   
         C         C         1.0       0.15695179404427143           0.0017353047743215411        0.5185010237105367 1.0000   
         C         C         1.0       0.14227692472725173           0.9860725089661149 0.4992737519196267 1.0000   
         C         C         1.0       0.13850522408433696           0.992136760190833  0.4676365601902692 1.0000   
         C         C         1.0       0.14793347447255173           0.012844868188975421         0.45480240326580545          1.0000   
         C         C         1.0       0.16165607550900607           0.028883799296099775         0.4742173429396722 1.0000   
         H         H         1.0       0.12216843705089958           0.17478567429732644          0.36080233426996994          1.0000   
         H         H         1.0       0.13677944233974398           0.13813142261006436          0.44703856475924786          1.0000   
         H         H         1.0       0.15223898080425716           0.1738458150838082 0.47174663360198454          1.0000   
         H         H         1.0       0.1348978737152556  0.20985198133870472           0.3851170607655656 1.0000   
         H         H         1.0       0.15643174869422516           0.14109335113105864          0.34750742200728013          1.0000   
         H         H         1.0       0.16264434895072263           0.13501226682901488          0.2898330579775005 1.0000   
         H         H         1.0       0.09859808905792482           0.08985268419543611          0.2836080174365352 1.0000   
         H         H         1.0       0.0897234897421339  0.09980948536793294           0.34123970695657524          1.0000   
         H         H         1.0       0.0970899985217405  0.0833723205863188  0.4145656176247558 1.0000   
         H         H         1.0       0.12376551001096057           0.05603556508484171          0.4482835280344445 1.0000   
         H         H         1.0       0.1900190184271842  0.08662968972632679           0.4136033660759653 1.0000   
         H         H         1.0       0.1666918748700113  0.11725469550521465           0.38954798440917404          1.0000   
         H         H         1.0       0.16015983440365328           0.1046190779945594 0.548675934955353  1.0000   
         H         H         1.0       0.1460736360435092  0.07462046038309819           0.5104883831590732 1.0000   
         H         H         1.0       0.21496751970925343           0.08312837667586682          0.4619945103171039 1.0000   
         H         H         1.0       0.22541936644973942           0.11686323106538689          0.4977385323216962 1.0000   
         H         H         1.0       0.18032145089918483           0.03472843340480608          0.39783621131184127          1.0000   
         H         H         1.0       0.21764533751086695           0.017327383961610644         0.37245173581006313          1.0000   
         H         H         1.0       0.2573660846233491  0.02106519180987506           0.46068202685093146          1.0000   
         H         H         1.0       0.2186803068026506  0.03950224402187771           0.48433228083596713          1.0000   
         H         H         1.0       0.18143542493431805           0.03293491552635064          0.5172034920180691 1.0000   
         H         H         1.0       0.1593939627308989  0.9975053295228514  0.5434374986210279 1.0000   
         H         H         1.0       0.1282256319983499  0.4870880225159696  0.4664588717838568 1.0000   
         H         H         1.0       0.14758519544783183           0.01636530635743305          0.42987461084823475          1.0000   
         C         C         1.0       0.36379971203606404           0.14058540509621767          0.7372411170370757 1.0000   
         C         C         1.0       0.3763068012242266  0.15793173719220785           0.7202324246757081 1.0000   
         C         C         1.0       0.37577219674950213           0.15760782621788116          0.6888861296715915 1.0000   
         C         C         1.0       0.36283476022301053           0.1389532499031656 0.6708221112961212 1.0000   
         C         C         1.0       0.34695933352873937           0.12434338690389991          0.6880261950886248 1.0000   
         C         C         1.0       0.3485758197045156  0.12331169104465223           0.7201789458396011 1.0000   
         H         H         1.0       0.38561752925512494           0.17268202389545578          0.7331831806105441 1.0000   
         H         H         1.0       0.38626701087975224           0.17121785842892628          0.6745663147038632 1.0000   
         H         H         1.0       0.3373986675457532  0.11062819722069252           0.6741277149393485 1.0000   
         H         H         1.0       0.33796613354740085           0.109193008673915  0.7328328570627617 1.0000   
         C         C         1.0       0.3736166655965812  0.08731554383098997           0.6320875433340786 1.0000   
         C         C         1.0       0.3627680613611335  0.10806226093747368           0.6177846219031159 1.0000   
         C         C         1.0       0.3537040988497305  0.10433738366074732           0.586282299317879  1.0000   
         C         C         1.0       0.35486682282177334           0.08176379842195465          0.5713761490199296 1.0000   
         C         C         1.0       0.3664665023977846  0.06294777848146219           0.585733264443811  1.0000   
         C         C         1.0       0.37614064033468403           0.06466136243233513          0.6161893586836497 1.0000   
         C         C         1.0       0.3663009621932604  0.13551439472282895           0.6335588714341401 1.0000   
         C         C         1.0       0.39459494468356815           0.13839361293626687          0.6228801978310813 1.0000   
         C         C         1.0       0.4008894419621498  0.14564282836387854           0.5918737059040698 1.0000   
         C         C         1.0       0.42522450480577334           0.14715076864641632          0.5822252071725283 1.0000   
         C         C         1.0       0.4447912025567973  0.14013967204376285           0.6031397245922223 1.0000   
         C         C         1.0       0.4397012691865526  0.13309030949816192           0.6339440205527458 1.0000   
         C         C         1.0       0.4138642780821254  0.13054541876704343           0.6439138994895877 1.0000   
         C         C         1.0       0.3215156577899188  0.1494833192994199  0.6149014260904038 1.0000   
         C         C         1.0       0.3042051242743111  0.1673562024235644  0.6098882475156876 1.0000   
         C         C         1.0       0.31053613197763985           0.19188441037841145          0.6036206772173942 1.0000   
         C         C         1.0       0.33590455210472336           0.19703796721589728          0.6083498378813271 1.0000   
         C         C         1.0       0.3535113273988224  0.1793613354927039  0.6159206631778287 1.0000   
         C         C         1.0       0.3463981719910524  0.15579579738453517           0.6206185760833002 1.0000   
         C         C         1.0       0.2899125802184833  0.21017242119286025           0.5904902654767143 1.0000   
         C         C         1.0       0.2279433711049457  0.1763956652585035  0.5383449204849319 1.0000   
         C         C         1.0       0.22458102300092103           0.19727783085462242          0.5559471908986267 1.0000   
         C         C         1.0       0.24442174834977157           0.21059198132701468          0.5671284332368963 1.0000   
         C         C         1.0       0.26691322253768346           0.19960979391019018          0.5687747279120476 1.0000   
         C         C         1.0       0.27240645637204874           0.1794624464299428 0.5499819252790866 1.0000   
         C         C         1.0       0.2526977512257218  0.16779391167150737           0.5347718258217211 1.0000   
         C         C         1.0       0.2989181515481368  0.22880693673696115           0.5631390330899668 1.0000   
         C         C         1.0       0.3173166206162448  0.22227490719384976           0.5419559016658562 1.0000   
         C         C         1.0       0.32882268056826724           0.24021841974234356          0.5232172950291029 1.0000   
         C         C         1.0       0.31985159095505716           0.26350208387396346          0.5236742050517581 1.0000   
         C         C         1.0       0.2993295965421477  0.27052147550723027           0.54087448557146   1.0000   
         C         C         1.0       0.28855234433651056           0.25325955936332123          0.5606573333509328 1.0000   
         C         C         1.0       0.29473050042271354           0.24360377653872536          0.63650867878613   1.0000   
         C         C         1.0       0.2838147743815471  0.25666559593717747           0.6606166541998535 1.0000   
         C         C         1.0       0.2614241313231386  0.24893363818448472           0.674296226163524  1.0000   
         C         C         1.0       0.25338533434258165           0.22556241171332542          0.6667442344145348 1.0000   
         C         C         1.0       0.26364508970128675           0.21327914674636267          0.6415901595783223 1.0000   
         C         C         1.0       0.2830425655354356  0.22215923097062193           0.6241775556283602 1.0000   
         H         H         1.0       0.3824590678695221  0.0878043055550441  0.654947761696702  1.0000   
         H         H         1.0       0.3479001569769828  0.12088479968668518           0.5730698029393361 1.0000   
         H         H         1.0       0.34832557438371003           0.08235997179567962          0.5457776281066855 1.0000   
         H         H         1.0       0.3863202675734521  0.04946212275598636           0.626276111330092  1.0000   
         H         H         1.0       0.38748155393156636           0.15159843029211412          0.5737057501173376 1.0000   
         H         H         1.0       0.42769118022563857           0.15319977453922162          0.5581792101039225 1.0000   
         H         H         1.0       0.45491187288916457           0.12821969536088676          0.6520172291758186 1.0000   
         H         H         1.0       0.4111164378902827  0.12268044954588063           0.6663620150677475 1.0000   
         H         H         1.0       0.31487031658486797           0.1307984860408356 0.6188297772040351 1.0000   
         H         H         1.0       0.2853387306208805  0.16124388607448845           0.6080927852327135 1.0000   
         H         H         1.0       0.34328468462985934           0.2138736403631121 0.6018633301394298 1.0000   
         H         H         1.0       0.37240325647499883           0.18489609311574837          0.6176007349082183 1.0000   
         H         H         1.0       0.20602733563923298           0.20478940345158986          0.5616115614312269 1.0000   
         H         H         1.0       0.2384857127871629  0.2253967424160134  0.582783734035253  1.0000   
         H         H         1.0       0.2899367027521168  0.1723659603441172  0.5481848000332233 1.0000   
         H         H         1.0       0.2571690999892512  0.15375759410745626           0.5188821583529347 1.0000   
         H         H         1.0       0.3251441599442596  0.20458062465343843           0.5405674155513767 1.0000   
         H         H         1.0       0.34527912468588184           0.23447159136185627          0.5100887452464089 1.0000   
         H         H         1.0       0.29155142820329794           0.28843971956066466          0.5430859056905252 1.0000   
         H         H         1.0       0.2727868871683853  0.2583438767564775  0.5754218298860742 1.0000   
         H         H         1.0       0.3108563990362098  0.251783975653047   0.6262182453715233 1.0000   
         H         H         1.0       0.2930759106927152  0.27378167904666745           0.668837345708371  1.0000   
         H         H         1.0       0.23683759299932894           0.21884818862772545          0.6781163524619006 1.0000   
         H         H         1.0       0.25457179687634124           0.19566417489446233          0.6345222377046742 1.0000   
         C         C         1.0       0.12851127114214414           0.3749664731163609 0.7107612712655271 1.0000   
         C         C         1.0       0.11010513487165352           0.35947174432809964          0.6978542276693918 1.0000   
         C         C         1.0       0.1006903151351632  0.3618445564537846  0.6673222395640886 1.0000   
         C         C         1.0       0.11076277479205461           0.38028994584857534          0.6479140902514041 1.0000   
         C         C         1.0       0.13048768483992998           0.3944619149787644 0.6608620874198871 1.0000   
         C         C         1.0       0.13629577035874604           0.3930779506831957 0.692098930262593  1.0000   
         H         H         1.0       0.10410542073194995           0.34478103178269565          0.7133510874940218 1.0000   
         H         H         1.0       0.08553694675388557           0.3505790754410553 0.658992896020229  1.0000   
         H         H         1.0       0.1382428203955572  0.40661998003246647           0.6439990656820985 1.0000   
         H         H         1.0       0.14658498204990322           0.4083195502881882 0.6987402935472035 1.0000   
         C         C         1.0       0.10321196656958745           0.43019422671396007          0.6061861618636437 1.0000   
         C         C         1.0       0.10826247302014062           0.4072466813050959 0.5936802080362962 1.0000   
         C         C         1.0       0.11526398431422791           0.4052360356043696 0.5623242533720241 1.0000   
         C         C         1.0       0.11862481688015739           0.42605357457017784          0.5452384136876098 1.0000   
         C         C         1.0       0.11362065422032798           0.44918020071621056          0.5584469833669388 1.0000   
         C         C         1.0       0.10377504587981687           0.4510680156613204 0.5892104619997448 1.0000   
         C         C         1.0       0.10460963643406747           0.3811717796849648 0.6115948099003662 1.0000   
         C         C         1.0       0.07548974265809867           0.3775173322121159 0.6045984409555702 1.0000   
         C         C         1.0       0.06528244911216932           0.36683991785663805          0.5771023994788177 1.0000   
         C         C         1.0       0.03914093929681769           0.3640528917230491 0.573108340397226  1.0000   
         C         C         1.0       0.022206361435208665          0.3738492739068203 0.5945590383854971 1.0000   
         C         C         1.0       0.03262913795381746           0.38637939207786076          0.6197814648614435 1.0000   
         C         C         1.0       0.05816498548006224           0.38808137481939403          0.625050662842453  1.0000   
         C         C         1.0       0.14836070069053486           0.36380937009796355          0.5982942340854799 1.0000   
         C         C         1.0       0.1650796967493849  0.34571151324812455           0.5884563854915773 1.0000   
         C         C         1.0       0.15712792405485346           0.32305499056749626          0.5786038331661912 1.0000   
         C         C         1.0       0.13215356424393418           0.3175932555105997 0.5845877769503193 1.0000   
         C         C         1.0       0.11544574883543217           0.33526007985079853          0.5960450767526577 1.0000   
         C         C         1.0       0.1234036807264531  0.35938023840195266           0.600779261152864  1.0000   
         C         C         1.0       0.176860241555078   0.30420800588761165           0.5656537626322594 1.0000   
         C         C         1.0       0.22993367582307556           0.3366829053959197 0.5024131188450116 1.0000   
         C         C         1.0       0.23771480974762654           0.31603160851693496          0.5185009263192712 1.0000   
         C         C         1.0       0.22021329425310818           0.3053000734384152 0.5365085528617055 1.0000   
         C         C         1.0       0.1959849340571619  0.31559824191921987           0.5404640080430866 1.0000   
         C         C         1.0       0.18908350636824878           0.3353688145117533 0.5215781261280492 1.0000   
         C         C         1.0       0.20580768579797062           0.3459736081868908 0.5026872395897625 1.0000   
         C         C         1.0       0.16680561960113202           0.2833485174009057 0.5401828302021677 1.0000   
         C         C         1.0       0.17588309607796776           0.25894842056833917          0.5381499653361532 1.0000   
         C         C         1.0       0.16916190648992352           0.24373172305860863          0.5136283823330947 1.0000   
         C         C         1.0       0.14970070248649678           0.24928365556476162          0.49388687524700475          1.0000   
         C         C         1.0       0.13903868240642006           0.27254093881823416          0.4958821647824805 1.0000   
         C         C         1.0       0.14850538393170767           0.2898513475858682 0.5178734900507971 1.0000   
         C         C         1.0       0.17449429933206817           0.2760971352996072 0.6152584268704767 1.0000   
         C         C         1.0       0.18428620123994294           0.2672563887026265 0.6441640893338613 1.0000   
         C         C         1.0       0.20786368789211368           0.27513264461133147          0.6566310332765828 1.0000   
         C         C         1.0       0.2201794679485359  0.29307604501514106           0.6409937119840491 1.0000   
         C         C         1.0       0.21089141329861782           0.30171087739636165          0.6127575064014881 1.0000   
         C         C         1.0       0.18955235217046018           0.292344615705939  0.5976162617155244 1.0000   
         H         H         1.0       0.09890699712873369           0.43153817756980617          0.631510506903956  1.0000   
         H         H         1.0       0.11964206632864206           0.3866645403450216 0.550687778470426  1.0000   
         H         H         1.0       0.12248972594275641           0.42217576099272164          0.5204199155908176 1.0000   
         H         H         1.0       0.09676344848800873           0.46786693501571547          0.6012342221291512 1.0000   
         H         H         1.0       0.07765916139421097           0.3593153430889649 0.5600103237583178 1.0000   
         H         H         1.0       0.033866905888785145          0.3533326128390883 0.5518503689957827 1.0000   
         H         H         1.0       0.020660793606517805          0.39567882780273134          0.6376551439440755 1.0000   
         H         H         1.0       0.06369618335174083           0.39745021307101364          0.6457994071232963 1.0000   
         H         H         1.0       0.15584482617458803           0.38307558362331057          0.5982138385491989 1.0000   
         H         H         1.0       0.18477241478797693           0.35127873612325144          0.5872889441937398 1.0000   
         H         H         1.0       0.1268377808090016  0.29823643468315664           0.5811738043260666 1.0000   
         H         H         1.0       0.09666757944397208           0.32820921044841334          0.5981545686805376 1.0000   
         H         H         1.0       0.2562403298444707  0.307948206364731   0.5167855840584388 1.0000   
         H         H         1.0       0.22447365922836315           0.28941146168472726          0.5495318824455288 1.0000   
         H         H         1.0       0.17078094558071633           0.3440759907376217 0.5242500721112683 1.0000   
         H         H         1.0       0.19911190393340936           0.3624402839774647 0.4916436402915694 1.0000   
         H         H         1.0       0.19130733645291711           0.2557195058452007 0.5535343589499996 1.0000   
         H         H         1.0       0.17719920699697184           0.22638553510311743          0.5099548194578452 1.0000   
         H         H         1.0       0.12477990955504031           0.27868083496341195          0.4787722730620284 1.0000   
         H         H         1.0       0.1414884090455561  0.30937526472682547           0.516913404095984  1.0000   
         H         H         1.0       0.156582219772939   0.26847718370761176           0.6070093180676982 1.0000   
         H         H         1.0       0.17354277615171962           0.2540629596343812 0.6564427408073211 1.0000   
         H         H         1.0       0.23803332153930462           0.2999982961884387 0.6479632637667331 1.0000   
         H         H         1.0       0.22062541484325307           0.3183165301075883 0.6024295585360744 1.0000   
         C         C         1.0       0.4694740930743403  0.3658843547555109  0.44296200276373054          1.0000   
         C         C         1.0       0.4608004642111499  0.37901336815434916           0.416612104046744  1.0000   
         C         C         1.0       0.43519203485614866           0.37849032511109665          0.4095346500110537 1.0000   
         C         C         1.0       0.4181708608129542  0.3644612401275541  0.4255684460554301 1.0000   
         C         C         1.0       0.42807502884647874           0.3507424190928882 0.449968482150665  1.0000   
         C         C         1.0       0.4532463567089887  0.3524268259379576  0.4607841302570022 1.0000   
         H         H         1.0       0.47341535155021636           0.3898210023431319 0.4020616103549059 1.0000   
         H         H         1.0       0.4297844210208034  0.39012406873769556           0.3904352560366584 1.0000   
         H         H         1.0       0.4158675711777114  0.3408240041232297  0.4635674711751834 1.0000   
         H         H         1.0       0.45868753934163486           0.3422036627939135 0.4808847291978189 1.0000   
         C         C         1.0       0.37934636266596794           0.3179329503182821 0.42937390008836   1.0000   
         C         C         1.0       0.37276250523906884           0.3423948621956051 0.43288352494346427          1.0000   
         C         C         1.0       0.34949229492197287           0.3473419871255318 0.44633015132220616          1.0000   
         C         C         1.0       0.33484121310289616           0.32978715077989823          0.4568488801182681 1.0000   
         C         C         1.0       0.3414988737621409  0.30492089500333974           0.4528849592008108 1.0000   
         C         C         1.0       0.3641506584347511  0.2990439316758103  0.4380035444996033 1.0000   
         C         C         1.0       0.3886358840679028  0.365082880065853   0.4188631925870032 1.0000   
         C         C         1.0       0.3786407253544917  0.3632973044610775  0.3825417789456319 1.0000   
         C         C         1.0       0.3536106026043851  0.36899415360227106           0.37231385271458006          1.0000   
         C         C         1.0       0.34756575505659476           0.372823610094576  0.34055713927664194          1.0000   
         C         C         1.0       0.3654111281192522  0.3669669965099476  0.31783911293987493          1.0000   
         C         C         1.0       0.3888146217227274  0.3590643756518663  0.3276036515643071 1.0000   
         C         C         1.0       0.3954560285099731  0.3549316616971686  0.35975803797832384          1.0000   
         C         C         1.0       0.3828261019457211  0.39426020956053265           0.4687431070057104 1.0000   
         C         C         1.0       0.37084091952377973           0.4152666078865744 0.48146003055178466          1.0000   
         C         C         1.0       0.35822834135205195           0.4317932915373303 0.46103724697788656          1.0000   
         C         C         1.0       0.362066159312829   0.4296453430184242  0.42886403356213604          1.0000   
         C         C         1.0       0.37663707094795507           0.41113800017257124          0.4163358297561348 1.0000   
         C         C         1.0       0.38389184054938086           0.3911415107548264 0.4356785917260197 1.0000   
         C         C         1.0       0.3328359346282103  0.4463132252840746  0.47387814695126573          1.0000   
         C         C         1.0       0.28334854441260343           0.38284852596713786          0.499324544934414  1.0000   
         C         C         1.0       0.29491389159106474           0.39807605628375947          0.522506802124688  1.0000   
         C         C         1.0       0.3092839453888638  0.41809802588786804           0.5153431084448703 1.0000   
         C         C         1.0       0.3147172244095016  0.42256067191389196           0.4828897774511922 1.0000   
         C         C         1.0       0.30354151904398025           0.40709761688356555          0.46013812343968835          1.0000   
         C         C         1.0       0.2889286005765996  0.38850581602581313           0.46805084034950734          1.0000   
         C         C         1.0       0.3206296337991141  0.46385298370693023           0.44643311193380636          1.0000   
         C         C         1.0       0.33245303018600775           0.4824904632212842 0.431116926243993  1.0000   
         C         C         1.0       0.3201648039069525  0.4981166633862936  0.40901952531140573          1.0000   
         C         C         1.0       0.29531932118059123           0.4939543550690193 0.4006026433755047 1.0000   
         C         C         1.0       0.2829708823653752  0.47743742343991485           0.4184998126169783 1.0000   
         C         C         1.0       0.2942199856162487  0.4624713683319334  0.4399735786179607 1.0000   
         C         C         1.0       0.3198053010630453  0.47703387387470875           0.518325684027595  1.0000   
         C         C         1.0       0.32435708060782087           0.49616618426458514          0.5390031466595189 1.0000   
         C         C         1.0       0.3492053903257163  0.5032146019902762  0.545069480016096  1.0000   
         C         C         1.0       0.36820671681627326           0.4929050976880868 0.5272681040814374 1.0000   
         C         C         1.0       0.36380536850644823           0.47452955579115697          0.5067112429209437 1.0000   
         C         C         1.0       0.33945103369455787           0.4652832357407878 0.5025055631399218 1.0000   
         H         H         1.0       0.39666281796863173           0.31189484547558516          0.41894066300188243          1.0000   
         H         H         1.0       0.3440209632767627  0.36657478964025636           0.4502360342599513 1.0000   
         H         H         1.0       0.318657999766884   0.3340544368654003  0.46986005927151175          1.0000   
         H         H         1.0       0.3694751988368399  0.2794341744937637  0.436370160550085  1.0000   
         H         H         1.0       0.3388439045318591  0.37473118111546533           0.39030177361049434          1.0000   
         H         H         1.0       0.3301095998856559  0.3813845314117491  0.3336581806293046 1.0000   
         H         H         1.0       0.40257442070071836           0.35553835100899694          0.30850638842162714          1.0000   
         H         H         1.0       0.4133673016826136  0.34797711250895985           0.3663813413062617 1.0000   
         H         H         1.0       0.38907685737503944           0.37975653650892793          0.4846374189567309 1.0000   
         H         H         1.0       0.37009871210296025           0.4169410666433473 0.5074667555519378 1.0000   
         H         H         1.0       0.35286449084844046           0.4411694942350761 0.41142156036349153          1.0000   
         H         H         1.0       0.3788775975544256  0.41088261848295704           0.3897353750105272 1.0000   
         H         H         1.0       0.28943851402255394           0.3943442713762771 0.5466997122322246 1.0000   
         H         H         1.0       0.31866597484980297           0.4286191197570027 0.5330125932324    1.0000   
         H         H         1.0       0.30735380256481193           0.4096415512248082 0.43578187684482506          1.0000   
         H         H         1.0       0.2806217336110819  0.3772202125237938  0.44922844715144283          1.0000   
         H         H         1.0       0.351227241256922   0.4863166818713765  0.4382760366049041 1.0000   
         H         H         1.0       0.34029290096959514           0.015340187746756672         0.4226345779862502 1.0000   
         H         H         1.0       0.2624855464328531  0.4736118043491676  0.4136486125524907 1.0000   
         H         H         1.0       0.28130577898083914           0.45093424825349737          0.4545973349310315 1.0000   
         H         H         1.0       0.30022512568845894           0.4730071975022895 0.5112692618871154 1.0000   
         H         H         1.0       0.30939961492356793           0.5030475472823318 0.5525691217088629 1.0000   
         H         H         1.0       0.3880948514932909  0.49755002434460155           0.5312656565706495 1.0000   
         H         H         1.0       0.37961650612017406           0.46646229188201305          0.495325378895664  1.0000   
         C         C         1.0       0.24902496138078942           0.3518870211373555 0.48481583473211864          1.0000   
         C         C         1.0       0.27019953455821255           0.3602572654137908 0.5086652912712842 1.0000   
         H         H         1.0       0.25630889009659225           0.34168517548308525          0.46368703078123247          1.0000   
         H         H         1.0       0.23843358117299482           0.36880530140412676          0.4761451322879815 1.0000   
         H         H         1.0       0.2847436474787408  0.34558553445965445           0.5125034162611802 1.0000   
         H         H         1.0       0.26484214398119166           0.36347781085502845          0.5341725392865583 1.0000   
         C         C         1.0       0.24733143080980063           0.2644060675576252 0.6981666662923764 1.0000   
         C         C         1.0       0.21918545165414632           0.2664818012451696 0.6897846957646234 1.0000   
         H         H         1.0       0.2537117185090576  0.28345009047965386           0.6975151115648016 1.0000   
         H         H         1.0       0.2505202772219556  0.25712277760520214           0.7231071171075073 1.0000   
         H         H         1.0       0.2117291694674834  0.2800196759199277  0.7073789157208146 1.0000   
         H         H         1.0       0.2068325148936893  0.24979492948739754           0.6954423365086765 1.0000   
         C         C         1.0       0.33152252797180404           0.28451404854239715          0.5042127353465047 1.0000   
         C         C         1.0       0.32449619659719386           0.2854850316899039 0.46895203179926565          1.0000   
         H         H         1.0       0.32844040714007483           0.3024991978367079 0.5160924953094886 1.0000   
         H         H         1.0       0.3522007491254655  0.2814194058066561  0.5117290381260843 1.0000   
         H         H         1.0       0.3044150499832824  0.29344926043884884           0.46666121243404135          1.0000   
         H         H         1.0       0.32405613178910436           0.2676496957101539 0.4562851323793863 1.0000   
         C         C         1.0       0.3759576216183246  0.013671985090255525         0.582667469948973  1.0000   
         C         C         1.0       0.36907219930222757           0.03867291921126739          0.5661837572780384 1.0000   
         H         H         1.0       0.3637606264716678  0.014175143649261833         0.6052001622498746 1.0000   
         H         H         1.0       0.39573139628031334           0.013082770670609823         0.5907056000740235 1.0000   
         H         H         1.0       0.3811707430997809  0.041201524512164425         0.5455714795916052 1.0000   
         H         H         1.0       0.3499682252266979  0.036227214859096274         0.553918600877379  1.0000   
         C         C         1.0       0.25625640654582243           0.5073942182892063 0.36598844273286274          1.0000   
         C         C         1.0       0.2904358666651128  0.020535724767190105         0.41153914746275033          1.0000   
         H         H         1.0       0.24945946935200894           0.4890398401898731 0.3563176053168319 1.0000   
         H         H         1.0       0.26464087790183116           0.02819176823405999          0.3744666813271778 1.0000   
         H         H         1.0       0.2896751697742409  0.03818143267940386           0.4281790680212593 1.0000   
         H         H         1.0       0.3040693731549942  0.023790525228867116         0.3918130693517588 1.0000   
         C         C         1.0       0.14034555070914687           0.22727697944591746          0.4728969737724551 1.0000   
         C         C         1.0       0.15827932401551048           0.21742154038352984          0.44738223965102725          1.0000   
         H         H         1.0       0.1218644497384813  0.2337947273589413  0.4612049630780877 1.0000   
         H         H         1.0       0.13120952613121334           0.21274338069712992          0.48976633225762833          1.0000   
         H         H         1.0       0.1760516824414644  0.21260866821558275           0.4586572599770535 1.0000   
         H         H         1.0       0.1638454464813184  0.23309916248447363           0.43071221173823765          1.0000   
         C         C         1.0       0.14428992250985698           0.4697230777966155 0.5214163650930511 1.0000   
         C         C         1.0       0.12079042002131853           0.4725243221039542 0.5406399318995592 1.0000   
         H         H         1.0       0.14213115427188372           0.45532066867141846          0.5033787821621106 1.0000   
         H         H         1.0       0.15868585487399206           0.46024402133613   0.536100321932237  1.0000   
         H         H         1.0       0.10526413129533257           0.4799202489692145 0.5244538962394801 1.0000   
         H         H         1.0       0.12542638352008423           0.48646271329277846          0.5586850508896924 1.0000   
         C         C         1.0       0.20165662403178464           0.13722314889603193          0.5457333406158261 1.0000   
         C         C         1.0       0.20489249547726032           0.1620774675148004 0.5265385496950585 1.0000   
         H         H         1.0       0.21881878919246955           0.13204452187504032          0.5589633898101419 1.0000   
         H         H         1.0       0.18708878406326948           0.14203303305218942          0.5638763834390914 1.0000   
         H         H         1.0       0.18537846195298316           0.17152965250575378          0.5296598742112688 1.0000   
         H         H         1.0       0.2100820659106157  0.1603013509897782  0.5010873799837295 1.0000   
         C         C         1.0       0.3611304851738735  0.39762455536144076           0.27112182719299555          1.0000   
         C         C         1.0       0.35816065781605017           0.3702682295741111 0.28162495005172605          1.0000   
         H         H         1.0       0.37630551629747866           0.4069815541618716 0.2867119226732121 1.0000   
         H         H         1.0       0.34363239639617943           0.408012445774444  0.274364135930798  1.0000   
         H         H         1.0       0.36932450421970714           0.3564989964740137 0.2677798185170005 1.0000   
         H         H         1.0       0.3381402321634051  0.3626689609889059  0.27591440176790333          1.0000   
         C         C         1.0       0.1391237348217752  0.37393009911905034           0.7444393362187932 1.0000   
         C         C         1.0       0.11942041929145633           0.37185668244985887          0.7699397351368433 1.0000   
         H         H         1.0       0.15192068426086555           0.3578365386907431 0.7463508882417615 1.0000   
         H         H         1.0       0.15232104480646017           0.3890585390158647 0.7502033194176281 1.0000   
         H         H         1.0       0.10585565067983152           0.3569644469173038 0.7641650891418128 1.0000   
         H         H         1.0       0.10645238554416842           0.3889320938381931 0.7657358909829597 1.0000   
         C         C         1.0       0.2710821219648233  0.394900402600614   0.034446576449894205         1.0000   
         C         C         1.0       0.25839660012260945           0.3694772562161588 0.0385218036130573 1.0000   
         H         H         1.0       0.2709667728121339  0.4036756522118963  0.05902794753687208          1.0000   
         H         H         1.0       0.2921033847266964  0.39319229793237803           0.030230870544773306         1.0000   
         H         H         1.0       0.2516100289354494  0.3644129519221715  0.015000742192178713         1.0000   
         H         H         1.0       0.24037377099820478           0.3725942938500684 0.049827640296546814         1.0000   
         C         C         1.0       0.36735776888082455           0.14172596329435158          0.7724922324625605 1.0000   
         C         C         1.0       0.39528595130871474           0.13432253689469242          0.7841113140598374 1.0000   
         H         H         1.0       0.3623058440923647  0.16085223118993552           0.7783780913933216 1.0000   
         H         H         1.0       0.35180578064594825           0.12969250575022914          0.782618346822071  1.0000   
         H         H         1.0       0.409195279987573   0.14762857741084862           0.7770512329891985 1.0000   
         H         H         1.0       0.400042892819784   0.11822446224492464           0.7711744593455148 1.0000   
         C         C         1.0       0.281388937236133   0.4718157222989906  0.8153482077151212 1.0000   
         C         C         1.0       0.29294388775724917           0.025020733427441315         0.8258665412837403 1.0000   
         H         H         1.0       0.2733351643384898  0.46680319972075707           0.7922740523290889 1.0000   
         H         H         1.0       0.29851846201166854           0.45967211880397024          0.817595745084603  1.0000   
         H         H         1.0       0.27557934470968964           0.035907514833326666         0.8218697884792886 1.0000   
         H         H         1.0       0.30419470113676184           0.02731002597398092          0.8053872460487465 1.0000   
         C         C         1.0       0.35323876214067473           0.4523710301341217 0.01738945151837351          1.0000   
         C         C         1.0       0.3489729933104952  0.46190345356473295           0.05170882347229112          1.0000   
         H         H         1.0       0.37066421889831136           0.44126153324887657          0.01543065468992284          1.0000   
         H         H         1.0       0.3388038562480958  0.4378868205158692  0.012292522674625475         1.0000   
         H         H         1.0       0.3289625548297169  0.466585274062231   0.054572587784622886         1.0000   
         H         H         1.0       0.3576320952835809  0.48070161622701685           0.05818869025966412          1.0000   
         C         C         1.0       0.3696851342249897  0.21885999607612835           0.9997936975632289 1.0000   
         C         C         1.0       0.39845901272750583           0.2134536941586658 0.0012467030088368079        1.0000   
         H         H         1.0       0.3607551609655144  0.1998405803087703  0.001416335572635252         1.0000   
         H         H         1.0       0.3633543314413576  0.22440816959856588           0.9748233096038296 1.0000   
         H         H         1.0       0.40440742361757437           0.20780816833851917          0.02679846704948142          1.0000   
         H         H         1.0       0.41142043794321803           0.22929155043445165          0.998073302412191  1.0000   
         C         C         1.0       0.1427544863916026  0.08036831612324755           0.24101185969082453          1.0000   
         C         C         1.0       0.13467901915917868           0.10671550436456205          0.25059644179141427          1.0000   
         H         H         1.0       0.13205752388660175           0.06566136526493724          0.25232195884705205          1.0000   
         H         H         1.0       0.16174562581847854           0.07671477870833535          0.2488177034396628 1.0000   
         H         H         1.0       0.1487185657218747  0.11857757581071639           0.2409669216978441 1.0000   
         H         H         1.0       0.115814562536628   0.10961410944704514           0.23867993913458338          1.0000   
         C         C         1.0       0.2831078144657402  0.23000006728781539           0.18848361449431214          1.0000   
         C         C         1.0       0.25439885029796505           0.2276567197359785 0.18868736371002626          1.0000   
         H         H         1.0       0.29068913570551314           0.21123502102072278          0.18607233434291418          1.0000   
         H         H         1.0       0.2894382258921412  0.2378846186652901  0.21144812015946024          1.0000   
         H         H         1.0       0.24579502109059045           0.24650106759326337          0.19373522032019486          1.0000   
         H         H         1.0       0.25009616318916866           0.21646819687804802          0.21155040825910237          1.0000   
         C         C         1.0       0.17013405095242157           0.03314178368905407          0.024237062608665365         1.0000   
         C         C         1.0       0.1734133923731429  0.041460018002774976         0.9896239597797689 1.0000   
         H         H         1.0       0.18746805541951808           0.02497822334908162          0.0356531955569669 1.0000   
         H         H         1.0       0.15805808353101386           0.015672421259356965         0.020646622764457823         1.0000   
         H         H         1.0       0.15490595764952486           0.04571713308547802          0.9790485567372134 1.0000   
         H         H         1.0       0.18607881385227532           0.05811834359809195          0.9888803933896646 1.0000   
         C         C         1.0       0.18301235967692542           0.27856267478702645          0.005399670170180776         1.0000   
         C         C         1.0       0.18600317260873914           0.27659986942498527          0.9681664477108112 1.0000   
         H         H         1.0       0.1645750468891262  0.2856882094886787  0.009686028252656917         1.0000   
         H         H         1.0       0.19600269437640414           0.2932344471584778 0.012788291039667792         1.0000   
         H         H         1.0       0.205084236498198   0.2728565026632984  0.9633634352426467 1.0000   
         H         H         1.0       0.17439003651499146           0.2613612214326782 0.957967797327258  1.0000   
         C         C         1.0       0.24889448449415097           0.09974120207658223          0.024395924427474305         1.0000   
         C         C         1.0       0.2668870940988814  0.08268338673052988           0.04651797721103102          1.0000   
         H         H         1.0       0.2636416514529455  0.1104582162195095  0.012198278835411474         1.0000   
         H         H         1.0       0.2388592835140148  0.08886970009733035           0.005716925479563701         1.0000   
         H         H         1.0       0.2554132452041108  0.06934936874052704           0.058672814370274294         1.0000   
         H         H         1.0       0.27685543528555806           0.09220128444563287          0.0669417114996426 1.0000   
         C         C         1.0       0.9769808556425977  0.38982068180158946           0.5854084309953869 1.0000   
         C         C         1.0       0.9938459348712924  0.3673277043063237  0.5943963234184615 1.0000   
         H         H         1.0       0.9778057832750431  0.3911882911390576  0.5594526046584389 1.0000   
         H         H         1.0       0.9876664793488843  0.4060552500359644  0.5961235408330445 1.0000   
         H         H         1.0       0.9887783210544875  0.35675570351078545           0.6168597370991161 1.0000   
         H         H         1.0       0.9919188955264138  0.3508605115016443  0.5778446837805844 1.0000   
         C         C         1.0       0.5136059677367323  0.34919823856516835           0.4269659674208519 1.0000   
         C         C         1.0       0.4977727054325779  0.3653229619612672  0.44908786314364396          1.0000   
         H         H         1.0       0.5061437991394125  0.3511148002958123  0.4025401203139632 1.0000   
         H         H         1.0       0.5114420071942019  0.32921222057619476           0.4320819501773643 1.0000   
         H         H         1.0       0.5043155179912402  0.38305841503723065           0.44436673077698025          1.0000   
         H         H         1.0       0.5021623782142456  0.36325733324381543           0.4744751056042809 1.0000   
         C         C         1.0       0.7531702593983052  0.36513566852851875           0.524182358523333  1.0000   
         C         C         1.0       0.7417155860302157  0.3917558159240062  0.5186962125483819 1.0000   
         H         H         1.0       0.7592051521377791  0.3624044211940158  0.5495752302467813 1.0000   
         H         H         1.0       0.7712373954192188  0.364251071178183   0.5115407728789494 1.0000   
         H         H         1.0       0.7406650371410602  0.3951339544467992  0.492893585166118  1.0000   
         H         H         1.0       0.7217238932690264  0.39291247785093775           0.5228168820968709 1.0000   
         C         C         1.0       0.47308707361744906           0.14144758541310976          0.5958538051095063 1.0000   
         C         C         1.0       0.4876846147150648  0.11653694053180072           0.5969804104106359 1.0000   
         H         H         1.0       0.4727244267796986  0.14804730215543427           0.5700773109716896 1.0000   
         H         H         1.0       0.48208511195526027           0.15574537081443882          0.6115414896167795 1.0000   
         H         H         1.0       0.4788838736232175  0.10313918247510027           0.6123262727663262 1.0000   
         H         H         1.0       0.48811406976087396           0.10711021602718593          0.5729194965519376 1.0000   
         C         C         1.0       0.7307633313495167  0.015740945275297433         0.7169249598732298 1.0000   
         C         C         1.0       0.7327260511178852  0.4922200082648714  0.7086472257728749 1.0000   
         H         H         1.0       0.7496407546033175  0.023686592205620863         0.7201617462872559 1.0000   
         H         H         1.0       0.7240952143913371  0.014767171967483355         0.7416336469274409 1.0000   
         H         H         1.0       0.7159933135545749  0.4808676175752784  0.7037765861052512 1.0000   
         H         H         1.0       0.7416682373863654  0.48415158720972296           0.7296974042249609 1.0000   
         C         C         1.0       0.6336897992195716  0.46433167930558383           0.5199582630130396 1.0000   
         C         C         1.0       0.6396730263036318  0.470435937242648   0.4852928232357199 1.0000   
         H         H         1.0       0.6432207328604023  0.446266216123112   0.5287668845995898 1.0000   
         H         H         1.0       0.6133883754967786  0.459641563196923   0.5239268603854974 1.0000   
         H         H         1.0       0.6597090270111241  0.4766607904556663  0.4847817165197081 1.0000   
         H         H         1.0       0.6281099598791631  0.48637315817827975           0.47701913050312816          1.0000   
         C         C         1.0       0.6332816133348893  0.23137682597971657           0.5644672406699746 1.0000   
         C         C         1.0       0.6088927377102529  0.21620463003553295           0.5573641739656436 1.0000   
         H         H         1.0       0.6472044571365062  0.216946899339067   0.5730411283683386 1.0000   
         H         H         1.0       0.6294708281428874  0.24386370695978252           0.5839799576654012 1.0000   
         H         H         1.0       0.5938919613816467  0.23047079592347075           0.5567343579202086 1.0000   
         H         H         1.0       0.6085249107403672  0.2081796235795417  0.5328413989076476 1.0000   
         C         C         1.0       0.992857424772137   0.1436302133610707  0.3955968503399819 1.0000   
         C         C         1.0       0.01312414243344584           0.15379891068921764          0.41967888614657145          1.0000   
         H         H         1.0       0.9981004997698675  0.12490582641826206           0.3865435997243401 1.0000   
         H         H         1.0       0.992809106992488   0.15439377843966387           0.3741128046669389 1.0000   
         H         H         1.0       0.011908797110602887          0.17516148763046166          0.4231548689573862 1.0000   
         H         H         1.0       0.008549126182949784          0.14759045280420552          0.44388012767392054          1.0000   
         C         C         1.0       0.7530376430757403  0.22385859010620313           0.36516567880210477          1.0000   
         C         C         1.0       0.724846232363891   0.22204931406559159           0.37407330293403845          1.0000   
         H         H         1.0       0.7543946725657354  0.21376742610807117           0.34260982033639464          1.0000   
         H         H         1.0       0.7572014159504081  0.24315446581950567           0.3590049728670708 1.0000   
         H         H         1.0       0.7206059847160649  0.2037927353604258  0.382420543148318  1.0000   
         H         H         1.0       0.7122587962744216  0.22495178021461362           0.3527050678576463 1.0000   
         C         C         1.0       0.8656516632161757  0.04294095791759742           0.5143314603379486 1.0000   
         C         C         1.0       0.8410191569920081  0.05277738974994332           0.5299773171737135 1.0000   
         H         H         1.0       0.8621272651209154  0.024892588396777122         0.5024332911632882 1.0000   
         H         H         1.0       0.8808688355796981  0.038105148884825656         0.53042699105713   1.0000   
         H         H         1.0       0.842817630644477   0.06765400851332148           0.5477537832652165 1.0000   
         H         H         1.0       0.8267961860722104  0.057971788151553016         0.5123287106516691 1.0000   
         C         C         1.0       0.82727792123501    0.28401548256306036           0.5602343896764714 1.0000   
         C         C         1.0       0.8537538668995037  0.29784314337773926           0.558720246102262  1.0000   
         H         H         1.0       0.8109761963613124  0.29610683830667306           0.5554197596592815 1.0000   
         H         H         1.0       0.8235262721687707  0.27846033892096966           0.5851695777251444 1.0000   
         H         H         1.0       0.8669586931096275  0.2820380636988116  0.5640699343941357 1.0000   
         H         H         1.0       0.857235761879806   0.30465296731620434           0.5348067605969364 1.0000   
         C         C         1.0       0.7361039190186884  0.14191301667378173           0.5561594002370722 1.0000   
         C         C         1.0       0.7301109342132068  0.12130238483560266           0.5299496830891846 1.0000   
         H         H         1.0       0.7435749104444328  0.13559798393566966           0.580401602325447  1.0000   
         H         H         1.0       0.7200334593763407  0.1540650958086703  0.5609847900778756 1.0000   
         H         H         1.0       0.7484180737017012  0.11343719185580121           0.5204057025999641 1.0000   
         H         H         1.0       0.7198524500233658  0.12959009994093673           0.5089213666497031 1.0000   
         C         C         1.0       0.5094303925386366  0.3923062260120535  0.1205165923554703 1.0000   
         C         C         1.0       0.49621356982342785           0.36768964713612556          0.1266811206382098 1.0000   
         H         H         1.0       0.5021305841245154  0.405841330949099   0.1373431552582989 1.0000   
         H         H         1.0       0.5056028813622558  0.40169188484159635           0.09794097339241867          1.0000   
         H         H         1.0       0.5026562716536062  0.3565557748276856  0.14672341140301043          1.0000   
         H         H         1.0       0.49944520237219897           0.3554762132959033 0.10642769990945257          1.0000   
         C         C         1.0       0.647264318746229   0.3698284594241712  0.262842881416923  1.0000   
         C         C         1.0       0.6464803982086046  0.3955181027903336  0.28043010907152605          1.0000   
         H         H         1.0       0.6312714331644189  0.35709760800469853           0.27118132020135816          1.0000   
         H         H         1.0       0.664510190510821   0.359296168160831   0.2692991284090578 1.0000   
         H         H         1.0       0.6330213371019886  0.4082441647578423  0.26811265202499013          1.0000   
         H         H         1.0       0.6660375169249949  0.4049265755541231  0.27796224103300676          1.0000   
         C         C         1.0       0.03300037459656281           0.36069336532379453          0.9648945699846068 1.0000   
         C         C         1.0       0.04767087491888517           0.38408582294083843          0.9705084360681223 1.0000   
         H         H         1.0       0.036849882594876364          0.3469433128124386 0.9838673409189796 1.0000   
         H         H         1.0       0.040059065128262746          0.34882058593397014          0.9437564936236092 1.0000   
         H         H         1.0       0.03760039146051583           0.3995498160803804 0.9583708383473607 1.0000   
         H         H         1.0       0.05111701245498438           0.3873782840409955 0.9949822211727377 1.0000   
         C         C         1.0       0.903154139151217   0.3791287742671735  0.7936320430916362 1.0000   
         C         C         1.0       0.8784194356961478  0.3901159782804596  0.7796939793330642 1.0000   
         H         H         1.0       0.920034442927075   0.38764165774841625           0.7837944210556873 1.0000   
         H         H         1.0       0.9029308842624539  0.35971375346528095           0.7873693485891097 1.0000   
         H         H         1.0       0.8621868707233378  0.3793470779293432  0.7876163654839667 1.0000   
         H         H         1.0       0.8755687207028551  0.4107887920075275  0.7863870459271161 1.0000   
         C         C         1.0       0.770365880376388   0.3673601023320372  0.04975547406818464          1.0000   
         C         C         1.0       0.7546540532963913  0.3821837761955439  0.025888766441889546         1.0000   
         H         H         1.0       0.756966011922402   0.35400934423465    0.0613605957336684 1.0000   
         H         H         1.0       0.7774858600595753  0.3762650508101173  0.07119501132775288          1.0000   
         H         H         1.0       0.7677725219525112  0.3915190192646012  0.008587412701263508         1.0000   
         H         H         1.0       0.7425396903441657  0.3697677887921443  0.011463804653138565         1.0000   
         C         C         1.0       0.5384605804011396  0.1276029633550278  0.9739353812146513 1.0000   
         C         C         1.0       0.5221085355212832  0.1041696312385462  0.9674109593644208 1.0000   
         H         H         1.0       0.5370764132382893  0.13498788507060103           0.9986105758656413 1.0000   
         H         H         1.0       0.5276559791610075  0.14207403751770825           0.960809660309406  1.0000   
         H         H         1.0       0.5320166259444911  0.08988342147143594           0.9537895665301765 1.0000   
         H         H         1.0       0.5196882776604206  0.09735915431410656           0.9922365246795048 1.0000   
         C         C         1.0       0.6131658143653339  0.14211816915838685           0.7780901328377643 1.0000   
         C         C         1.0       0.640882556928795   0.13836057550789352           0.7885140398631569 1.0000   
         H         H         1.0       0.6095435652316461  0.1606820519645491  0.7849799682272827 1.0000   
         H         H         1.0       0.5995180803080272  0.13046067496760275           0.7899703808314024 1.0000   
         H         H         1.0       0.6457758785130489  0.12023647321863665           0.780843922079989  1.0000   
         H         H         1.0       0.6529505691021711  0.1513600671447397  0.7752397270416975 1.0000   
         C         C         1.0       0.7807093980836914  0.24019072551677037           0.8678712884914499 1.0000   
         C         C         1.0       0.7931917754632591  0.26598810314882876           0.860651507278624  1.0000   
         H         H         1.0       0.7692056583936144  0.23680720588448465           0.8470841109021008 1.0000   
         H         H         1.0       0.7971470254234597  0.2265611439486936  0.8717516099656313 1.0000   
         H         H         1.0       0.7758720801520347  0.27867707389232604           0.8577889453101817 1.0000   
         H         H         1.0       0.8046709768449124  0.26585979131286464           0.839140002324568  1.0000   
         C         C         1.0       0.6626026906504053  0.035391131792614855         0.01915161339809468          1.0000   
         C         C         1.0       0.6835770291343813  0.048499325997141865         0.00045491346641446384       1.0000   
         H         H         1.0       0.6511179025072912  0.04672449184659023           0.03672238849240856          1.0000   
         H         H         1.0       0.6485468255338898  0.028567818650248683         0.003043683160898869         1.0000   
         H         H         1.0       0.690428044274317   0.034741688227396934         0.9828090182017005 1.0000   
         H         H         1.0       0.6985744342842973  0.052305282215922164         0.01611781971078341          1.0000   
         C         C         1.0       0.6824708860797735  0.3065854456284206  0.028530021833358545         1.0000   
         C         C         1.0       0.6686726834363395  0.29969399113403694           0.059816601874352976         1.0000   
         H         H         1.0       0.6981131559505867  0.3176384147570648  0.03718919572150182          1.0000   
         H         H         1.0       0.6710598139253702  0.3188125175515057  0.011499118247573723         1.0000   
         H         H         1.0       0.6559586904249559  0.2825622422992395  0.057762987807055084         1.0000   
         H         H         1.0       0.683287280410885   0.292235109773881   0.07680476300211912          1.0000   
         C         C         1.0       0.004290825795872921          0.10315062374170547          0.11636654896647838          1.0000   
         C         C         1.0       0.017825905934201042          0.12808709703089396          0.11537336026566636          1.0000   
         H         H         1.0       0.009821766885070044          0.09235053956540941          0.13859093622113997          1.0000   
         H         H         1.0       0.008139847956712076          0.09189539750307409          0.09460483368157417          1.0000   
         H         H         1.0       0.015987576942941395          0.13653242938127372          0.13752286581893777          1.0000   
         H         H         1.0       0.011310302071436372          0.13845848306605613          0.09442620123249101          1.0000   
         C         C         1.0       0.8732332719829043  0.12025832814171952           0.29160036585267396          1.0000   
         C         C         1.0       0.8802926021493344  0.1429915631482936  0.2767107258716392 1.0000   
         H         H         1.0       0.8531251060188625  0.11492703745720918           0.28469090516279427          1.0000   
         H         H         1.0       0.8823248513265511  0.10279188505777724           0.28061874691837596          1.0000   
         H         H         1.0       0.8976435559983927  0.14993951897008054           0.28978589326574206          1.0000   
         H         H         1.0       0.8675502926655825  0.15761436448598024           0.2850730170088329 1.0000   
         C         C         1.0       0.7955452835500751  0.46775531352771227           0.14596921966101067          1.0000   
         C         C         1.0       0.7733182739752982  0.4815256547555222  0.1633983538248436 1.0000   
         H         H         1.0       0.7899694637108289  0.45053404310642875           0.13374316398046618          1.0000   
         H         H         1.0       0.8096016399541677  0.4619168198720955  0.1645899526180178 1.0000   
         H         H         1.0       0.777510008525891   0.502020997473095   0.1658245956592232 1.0000   
         H         H         1.0       0.7717647457644483  0.47658312701205696           0.18961571828264756          1.0000   
         C         C         1.0       0.9136437038774737  0.47042219483378606           0.001060056154476463         1.0000   
         C         C         1.0       0.8956312245449195  0.4872790118711271  0.981804241076463  1.0000   
         H         H         1.0       0.9058231952312907  0.46583186020881684           0.024977811895132644         1.0000   
         H         H         1.0       0.9317883300833513  0.4800109264490272  0.008411779705986833         1.0000   
         H         H         1.0       0.883977660316672   0.4737931899424779  0.9666733819919738 1.0000   
         H         H         1.0       0.9039422292963969  0.49789894658443684           0.9623142347524933 1.0000   
         C         C         1.0       0.8688139995105453  0.22574519428322368           0.09025187422246624          1.0000   
         C         C         1.0       0.8842679817809521  0.23171375711683725           0.06013455972263775          1.0000   
         H         H         1.0       0.8497090272141046  0.22764313114119308           0.0807830884686557 1.0000   
         H         H         1.0       0.8692305774893213  0.23997881244702102           0.11040662318458547          1.0000   
         H         H         1.0       0.8863705510939744  0.21391128480855445           0.04570927922259856          1.0000   
         H         H         1.0       0.9041580406647487  0.23529088084164926           0.06669795108754513          1.0000   
         C         C         1.0       0.7613521470831296  0.11351496462396414           0.0526955091705518 1.0000   
         C         C         1.0       0.7720577437750785  0.13954388253091765           0.06001992207546684          1.0000   
         H         H         1.0       0.7429106288663544  0.1100923760194529  0.06386523755833969          1.0000   
         H         H         1.0       0.7547658674692218  0.1127597680155102  0.027128646429311322         1.0000   
         H         H         1.0       0.7929917465404313  0.1393855941218994  0.057620513994683716         1.0000   
         H         H         1.0       0.7712029276336306  0.14357037710314283           0.08532370112367614          1.0000   
         C         C         1.0       0.9680788360706151  0.6133687380653211  0.08723878755576871          1.0000   
         C         C         1.0       0.9592429738151508  0.5999709756729603  0.11253994216207287          1.0000   
         C         C         1.0       0.9360198339713206  0.6049807904897344  0.12479695043378167          1.0000   
         C         C         1.0       0.9212532977810295  0.6238390005154576  0.11344836464773615          1.0000   
         C         C         1.0       0.9304998553289711  0.6362474839946983  0.08787501041426839          1.0000   
         C         C         1.0       0.9525247460794656  0.6310822973414804  0.07426933790256952          1.0000   
         H         H         1.0       0.9717814638025719  0.5845093238764135  0.12311766631340225          1.0000   
         H         H         1.0       0.9309309159568651  0.5940297057476739  0.14420148894346582          1.0000   
         H         H         1.0       0.9191980849976793  0.6509298457314255  0.07873945103911512          1.0000   
         H         H         1.0       0.960086567104566   0.6430442191696503  0.0557213255420882 1.0000   
         C         C         1.0       0.8994056841220052  0.6753893578618242  0.12992773989102746          1.0000   
         C         C         1.0       0.8838738675839858  0.6558357582102037  0.12243554258522686          1.0000   
         C         C         1.0       0.8601937083678302  0.6611356693451538  0.10847186389259841          1.0000   
         C         C         1.0       0.853994265021749   0.6846151658004404  0.09831229029965223          1.0000   
         C         C         1.0       0.8710677223108587  0.7034580664865444  0.10440623117482556          1.0000   
         C         C         1.0       0.8933614707076872  0.6993174850305115  0.12204067404527046          1.0000   
         C         C         1.0       0.8941847577121904  0.6288723842798603  0.1290339701127402 1.0000   
         C         C         1.0       0.8953374553664903  0.6288934605292192  0.16756387325238817          1.0000   
         C         C         1.0       0.872965346177857   0.6298323173220584  0.18431718906939418          1.0000   
         C         C         1.0       0.8725368935493978  0.6298762856810508  0.21728213157594847          1.0000   
         C         C         1.0       0.894342489533919   0.632980723954556   0.23530298204910502          1.0000   
         C         C         1.0       0.9163071712172667  0.631851255470506   0.21894795827243513          1.0000   
         C         C         1.0       0.9170018206582816  0.6308226816553468  0.1866722480998303 1.0000   
         C         C         1.0       0.874946110870923   0.605811947804806   0.07900197276766788          1.0000   
         C         C         1.0       0.8597051179479631  0.588354891727822   0.06550243021809792          1.0000   
         C         C         1.0       0.8482238484299486  0.5708641763462778  0.08314815693169189          1.0000   
         C         C         1.0       0.8517318806032462  0.5722142895162928  0.11624597109398335          1.0000   
         C         C         1.0       0.8676790205326733  0.5896333604376478  0.13010082588766717          1.0000   
         C         C         1.0       0.8773647955997795  0.6075888788251359  0.11272564250196165          1.0000   
         C         C         1.0       0.8344483025931089  0.5479995468812038  0.06714435567358293          1.0000   
         C         C         1.0       0.7713706927475111  0.5916424675434417  0.03295039323118656          1.0000   
         C         C         1.0       0.7893028196755972  0.5850162295386723  0.01228945027502868          1.0000   
         C         C         1.0       0.8086344802327025  0.5710385290788434  0.0214097883375657 1.0000   
         C         C         1.0       0.8104385753733868  0.5610640081484554  0.05228079026452485          1.0000   
         C         C         1.0       0.7919284685421817  0.5689559628182519  0.07356108208766111          1.0000   
         C         C         1.0       0.7720414060810565  0.5840421281011366  0.06331197877614543          1.0000   
         C         C         1.0       0.8268342101278552  0.5253196900734756  0.08879091034074282          1.0000   
         C         C         1.0       0.8393796173808408  0.5161248388550497  0.11626224637388297          1.0000   
         C         C         1.0       0.84415483736525    0.9896226486475457  0.14655476798873895          1.0000   
         C         C         1.0       0.8219221986846015  0.9777948764847789  0.14000583266721495          1.0000   
         C         C         1.0       0.8083519548768584  0.9831926148082445  0.1111007853294518 1.0000   
         C         C         1.0       0.8144126455916247  0.004549792027382482         0.09528220604585443          1.0000   
         C         C         1.0       0.8421617704918688  0.521214705183304   0.016258605460184795         1.0000   
         C         C         1.0       0.8531319815025973  0.0009274776288219488        0.006652877223221942         1.0000   
         C         C         1.0       0.877318173862672   0.9942783890825355  0.009623080807936946         1.0000   
         C         C         1.0       0.891722732393172   0.0050306823647303656        0.03459143705700054          1.0000   
         C         C         1.0       0.8779562742980899  0.5325686117981235  0.04693500206870813          1.0000   
         C         C         1.0       0.8516716978793166  0.5334184216900196  0.04309672222821293          1.0000   
         H         H         1.0       0.9177049038380225  0.6702858628431774  0.14085632705780365          1.0000   
         H         H         1.0       0.8463153820621422  0.6470175811240759  0.10299971064622991          1.0000   
         H         H         1.0       0.8374491786885214  0.6904658671719617  0.08442159886504914          1.0000   
         H         H         1.0       0.9072648731654636  0.7139543158373809  0.12402335054834632          1.0000   
         H         H         1.0       0.8550066859830626  0.6291325018859424  0.17096195953643914          1.0000   
         H         H         1.0       0.8538407412267057  0.6300254210701913  0.22780660923825588          1.0000   
         H         H         1.0       0.9330710773856615  0.635861853611203   0.23136546709430303          1.0000   
         H         H         1.0       0.9340613818760032  0.6349713888262254  0.1771094435433421 1.0000   
         H         H         1.0       0.8824757349083868  0.6191332367139264  0.06451906495861895          1.0000   
         H         H         1.0       0.8586752066410464  0.5856350366518837  0.039249178770332634         1.0000   
         H         H         1.0       0.8441238384413359  0.5596414064100717  0.13444016313187335          1.0000   
         H         H         1.0       0.8698786607799687  0.5889972830671599  0.1557256611831709 1.0000   
         H         H         1.0       0.7899498694802345  0.593092627273498   0.9886893385489969 1.0000   
         H         H         1.0       0.8241139031179742  0.5666627824146844  0.005791331685095312         1.0000   
         H         H         1.0       0.7960972672196794  0.563268445619989   0.09855603764787314          1.0000   
         H         H         1.0       0.7590301538289738  0.5915719708362195  0.08219686353572553          1.0000   
         H         H         1.0       0.8590069442520183  0.5215895185802921  0.12267606096041067          1.0000   
         H         H         1.0       0.8573702970317363  0.9841132659002239  0.16621806098125572          1.0000   
         H         H         1.0       0.7924718994086141  0.9706493229604561  0.10262044908201   1.0000   
         H         H         1.0       0.8004147025942306  0.5126386609626551  0.05312664514290994          1.0000   
         H         H         1.0       0.8221000044321668  0.522714121565506   0.012581630362261157         1.0000   
         H         H         1.0       0.8412578967914192  0.993004302480018   0.9892569492967209 1.0000   
         H         H         1.0       0.9120228801570437  0.0005772523901950155        0.0354745889429455 1.0000   
         H         H         1.0       0.8867726611424483  0.541861160341025   0.068722039572398  1.0000   
         C         C         1.0       0.6332062514435522  0.6554928434288716  0.8223907004447732 1.0000   
         C         C         1.0       0.6188653361831935  0.6690065841374323  0.8432101005759912 1.0000   
         C         C         1.0       0.6210209561356492  0.6647913956047096  0.8743232280460894 1.0000   
         C         C         1.0       0.6349235948116663  0.6450219645037156  0.8852445336274464 1.0000   
         C         C         1.0       0.6502016324350928  0.6315493902389349  0.8640784480344734 1.0000   
         C         C         1.0       0.6506318581967675  0.6383553428344854  0.8336052918804001 1.0000   
         H         H         1.0       0.6058396982366532  0.6834669904056863  0.8353878325536641 1.0000   
         H         H         1.0       0.6078718184797852  0.6755039263048969  0.8894086787819205 1.0000   
         H         H         1.0       0.6610282712687444  0.6158349456114498  0.8712154969101077 1.0000   
         H         H         1.0       0.6630013522992921  0.628504642720832   0.8196801628094121 1.0000   
         C         C         1.0       0.6374174040065288  0.592209474798613   0.9168765753796504 1.0000   
         C         C         1.0       0.6407874486942168  0.6140756381400816  0.9350550773695058 1.0000   
         C         C         1.0       0.6538429557204152  0.6121090543898513  0.9632493028580059 1.0000   
         C         C         1.0       0.6622352665636841  0.59004470296703    0.9739619108709286 1.0000   
         C         C         1.0       0.6579065413726637  0.5685556946021263  0.956536254867338  1.0000   
         C         C         1.0       0.6470840276268859  0.5701858470073807  0.9271741332243905 1.0000   
         C         C         1.0       0.6336172496657603  0.6407197724083585  0.9225125725531355 1.0000   
         C         C         1.0       0.6053233299683807  0.6398423416704695  0.9362367612915199 1.0000   
         C         C         1.0       0.5988369516164082  0.6448541455801974  0.9669817060297555 1.0000   
         C         C         1.0       0.5749722000598276  0.6407019560005487  0.976939189574712  1.0000   
         C         C         1.0       0.556255858389636   0.6317056462082753  0.9562120035701052 1.0000   
         C         C         1.0       0.5620861449176777  0.6270840940946498  0.9245778985462912 1.0000   
         C         C         1.0       0.5872303946382572  0.6298307288356206  0.9156068276932416 1.0000   
         C         C         1.0       0.6782397714076555  0.6587767743654942  0.9276010620633    1.0000   
         C         C         1.0       0.6954561135280346  0.676592714802887   0.9343115560492525 1.0000   
         C         C         1.0       0.6890781312431484  0.6981513762157691  0.9488726764979394 1.0000   
         C         C         1.0       0.6641222080182096  0.702035635887269   0.9538020191276414 1.0000   
         C         C         1.0       0.6464205857302423  0.6850392767034144  0.9452179158373659 1.0000   
         C         C         1.0       0.6529296229125864  0.6618422467979462  0.9336176274087845 1.0000   
         C         C         1.0       0.713735073763811   0.7147037731440312  0.9611841936210904 1.0000   
         C         C         1.0       0.7496110973736825  0.6589465351045675  0.022526304823718958         1.0000   
         C         C         1.0       0.76066581916632    0.6669528269957203  0.9946158816147376 1.0000   
         C         C         1.0       0.7498368103452472  0.6859748530871831  0.9756648259569903 1.0000   
         C         C         1.0       0.7277855470334424  0.697130026738502   0.9853941681040759 1.0000   
         C         C         1.0       0.7169201836570087  0.687539077121941   0.011526903971521665         1.0000   
         C         C         1.0       0.7277144147155016  0.6696082563072152  0.029852953059496326         1.0000   
         C         C         1.0       0.7067748277517535  0.7398087932413673  0.9805904068400557 1.0000   
         C         C         1.0       0.6881795697336581  0.7562419179359399  0.9702673267032363 1.0000   
         C         C         1.0       0.6819880161299237  0.7761915902898779  0.9892725223525002 1.0000   
         C         C         1.0       0.6962946836253493  0.7827974218611466  0.015385872837427962         1.0000   
         C         C         1.0       0.7174637307166327  0.7689553585570734  0.022523246516735464         1.0000   
         C         C         1.0       0.7224668306179943  0.7463571544653119  0.007109524636863984         1.0000   
         C         C         1.0       0.7524564278740761  0.7388677824814999  0.9388557922379188 1.0000   
         C         C         1.0       0.7669563765058617  0.7452625179484399  0.913257469899399  1.0000   
         C         C         1.0       0.758084812835043   0.7433161050642164  0.8822879388956908 1.0000   
         C         C         1.0       0.7336218328738553  0.7352221866848877  0.8774055692895373 1.0000   
         C         C         1.0       0.7200016051722427  0.7266537599571872  0.9030107071782104 1.0000   
         C         C         1.0       0.7302725572602222  0.7265942836036208  0.9335009267480168 1.0000   
         H         H         1.0       0.629996378220122   0.5941671087775414  0.893244919030964  1.0000   
         H         H         1.0       0.6587404451735648  0.6280097779754692  0.9772161000074915 1.0000   
         H         H         1.0       0.6730004820298243  0.5879678204038762  0.9942486849309293 1.0000   
         H         H         1.0       0.6430951918278744  0.5539977531782121  0.9124613378785047 1.0000   
         H         H         1.0       0.6121891284111881  0.654302552127504   0.9852368740918792 1.0000   
         H         H         1.0       0.570837284478501   0.6452471003249864  0.0025251612455199357        1.0000   
         H         H         1.0       0.5481443011623554  0.6188205697886844  0.9087807020647842 1.0000   
         H         H         1.0       0.589652467125845   0.6222401344449809  0.8913550083513406 1.0000   
         H         H         1.0       0.6838258247622756  0.6403357517810684  0.9199622608681903 1.0000   
         H         H         1.0       0.7147587208400797  0.6724611839798951  0.9277430924068861 1.0000   
         H         H         1.0       0.6575087759545452  0.7175388827496966  0.9693227787946578 1.0000   
         H         H         1.0       0.6270217668782619  0.6879615031063598  0.952248591786955  1.0000   
         H         H         1.0       0.7783354232420188  0.6579087323417098  0.9880779649868725 1.0000   
         H         H         1.0       0.7599453874060837  0.6905887014239757  0.9547163058179714 1.0000   
         H         H         1.0       0.6988077983037527  0.6939042973296253  0.019542517435793164         1.0000   
         H         H         1.0       0.7161591655825246  0.6630098623262973  0.049938272787126786         1.0000   
         H         H         1.0       0.6778025278595613  0.7521881142148569  0.947688615572871  1.0000   
         H         H         1.0       0.6680213295235006  0.7887061461106354  0.9802114415750007 1.0000   
         H         H         1.0       0.727259474355861   0.7734077057963905  0.04377803168526759          1.0000   
         H         H         1.0       0.7374657765797233  0.7347467559985104  0.016049989720987496         1.0000   
         H         H         1.0       0.7587752965634603  0.7426987897899179  0.9634224404288539 1.0000   
         H         H         1.0       0.7847940463221782  0.7544669976939355  0.9176920536921517 1.0000   
         H         H         1.0       0.7261027826065274  0.7356932210300372  0.8521640270279346 1.0000   
         H         H         1.0       0.7015587841003055  0.7193105277094423  0.8989790906181008 1.0000   
         C         C         1.0       0.9053528494627833  0.8784358993878147  0.8068836577851985 1.0000   
         C         C         1.0       0.9214370838758781  0.8604176372260959  0.8190637810889795 1.0000   
         C         C         1.0       0.9261230917425506  0.8603813378142253  0.850846268465534  1.0000   
         C         C         1.0       0.9174699206511255  0.8778219201653562  0.8721781708865158 1.0000   
         C         C         1.0       0.9019045396713483  0.8950973450365535  0.8582018772826642 1.0000   
         C         C         1.0       0.8954253423460101  0.8956901417917521  0.8263011770072216 1.0000   
         H         H         1.0       0.9309218787897188  0.8472135577797579  0.803959486251234  1.0000   
         H         H         1.0       0.9385904369174332  0.8460750055239443  0.8578443978498195 1.0000   
         H         H         1.0       0.8945951573343532  0.9097837403482124  0.8740095576717858 1.0000   
         H         H         1.0       0.8855868851913714  0.9117438970289238  0.8179166913801498 1.0000   
         C         C         1.0       0.9297748746841801  0.9225542781682319  0.9211549214180658 1.0000   
         C         C         1.0       0.9235142367508559  0.898687225559326   0.9317597688620519 1.0000   
         C         C         1.0       0.9177054714889583  0.8947995790589351  0.9630283800633167 1.0000   
         C         C         1.0       0.9144464254630682  0.9154465325253852  0.9817909771613753 1.0000   
         C         C         1.0       0.9177982986631333  0.9387707705640035  0.9715147585075158 1.0000   
         C         C         1.0       0.926082194638919   0.9417972948155249  0.9411772209801685 1.0000   
         C         C         1.0       0.924013098645118   0.8747896375458508  0.9091830326920786 1.0000   
         C         C         1.0       0.954038491558964   0.8674786324309742  0.9140529371303229 1.0000   
         C         C         1.0       0.9641257244088007  0.8531373681368055  0.9381706874292881 1.0000   
         C         C         1.0       0.9897778404809265  0.8500460347757253  0.9427656122648252 1.0000   
         C         C         1.0       0.006692267774583982          0.8616207221305492 0.9227013811017661 1.0000   
         C         C         1.0       0.996463458023019   0.877068402015457   0.89883002448838   1.0000   
         C         C         1.0       0.9712843661760698  0.8811623362455696  0.8955821751645541 1.0000   
         C         C         1.0       0.8794346018202889  0.8626789110114239  0.9235752725004778 1.0000   
         C         C         1.0       0.8621818401379674  0.8464866825815928  0.9338364625827341 1.0000   
         C         C         1.0       0.86769572265555    0.8228137054352235  0.9436471156100665 1.0000   
         C         C         1.0       0.8917528931196101  0.8130444963390782  0.9358824211860269 1.0000   
         C         C         1.0       0.9088206046982406  0.8287530280476495  0.9212142411364417 1.0000   
         C         C         1.0       0.9039857983886372  0.8538275346727326  0.917036501704279  1.0000   
         C         C         1.0       0.8481833523132997  0.8069644342739728  0.9637014914401757 1.0000   
         C         C         1.0       0.8105583091801817  0.8562433527806864  0.03290935763973597          1.0000   
         C         C         1.0       0.7983713160260364  0.8357216959426426  0.019998160234026008         1.0000   
         C         C         1.0       0.8101344136477155  0.8199679040935139  0.9987352715727786 1.0000   
         C         C         1.0       0.8332638910692708  0.8254906112061788  0.9877799557542092 1.0000   
         C         C         1.0       0.8460692437561929  0.843445911902917   0.0041833042508663265        1.0000   
         C         C         1.0       0.8348627261246033  0.8599614411697233  0.02519565095377714          1.0000   
         C         C         1.0       0.8580682792368999  0.7855290959502368  0.9885347529140492 1.0000   
         C         C         1.0       0.845411523106167   0.7636881588735175  0.9937424534414058 1.0000   
         C         C         1.0       0.8539300363518151  0.747233861156219   0.01563848047568661          1.0000   
         C         C         1.0       0.8764343884503897  0.7502308467748844  0.03259126199217399          1.0000   
         C         C         1.0       0.8900670111385361  0.7705531043189912  0.026686777896821005         1.0000   
         C         C         1.0       0.8814883775821784  0.7876430448033107  0.005651691517303714         1.0000   
         C         C         1.0       0.8398585627778808  0.7781892558080803  0.9152064859474377 1.0000   
         C         C         1.0       0.8276550995010772  0.768839355224915   0.8882319654808043 1.0000   
         C         C         1.0       0.8056881079919657  0.7810331198212673  0.8776286568282355 1.0000   
         C         C         1.0       0.7968343706212451  0.8012334494664414  0.8938100203640527 1.0000   
         C         C         1.0       0.810101732294545   0.8102541603898694  0.9203700644517466 1.0000   
         C         C         1.0       0.8305497669989428  0.7970388599902938  0.933168588302072  1.0000   
         H         H         1.0       0.9347047985806356  0.9243866316202614  0.8960258791092944 1.0000   
         H         H         1.0       0.917017983445135   0.8768228532887394  0.9725401329769117 1.0000   
         H         H         1.0       0.9082985884575733  0.9121403082236686  0.006161725129399054         1.0000   
         H         H         1.0       0.928008910036643   0.9597180969741969  0.9313378144782148 1.0000   
         H         H         1.0       0.9510320329913962  0.8455678171662292  0.9547618461237941 1.0000   
         H         H         1.0       0.9970398313317859  0.8400399527720543  0.9620031432074736 1.0000   
         H         H         1.0       0.008592960633663639          0.8871392763942182 0.8847624178219702 1.0000   
         H         H         1.0       0.964395252156633   0.8950519875415924  0.8777278455764389 1.0000   
         H         H         1.0       0.8739569403687323  0.8819957315599755  0.921346493265744  1.0000   
         H         H         1.0       0.842879782877373   0.8549714921033104  0.9349300783425886 1.0000   
         H         H         1.0       0.8954577649878767  0.7937051777404137  0.9420212681840658 1.0000   
         H         H         1.0       0.9269728481990326  0.8235487598836272  0.9170862045485141 1.0000   
         H         H         1.0       0.779789934323719   0.8313752990144723  0.02697982655424469          1.0000   
         H         H         1.0       0.801346338774871   0.8033282850101252  0.9893948216625124 1.0000   
         H         H         1.0       0.8657265972316849  0.8459185431576534  0.9985209294034455 1.0000   
         H         H         1.0       0.8449782826194584  0.8754247642597135  0.03403172542791125          1.0000   
         H         H         1.0       0.8256881655889607  0.76118594565286    0.9846756676742546 1.0000   
         H         H         1.0       0.8429054655895526  0.7313288650454518  0.0172978971781097 1.0000   
         H         H         1.0       0.909639459963233   0.7729504018048818  0.03477025742389771          1.0000   
         H         H         1.0       0.8951054021561157  0.8026076874424323  0.0015292186473570002        1.0000   
         H         H         1.0       0.857200960545374   0.7691833474371669  0.9237027123409074 1.0000   
         H         H         1.0       0.8327054773209546  0.7525331367803788  0.8759397181369462 1.0000   
         H         H         1.0       0.7796943480445422  0.8094840320748375  0.8857800535571901 1.0000   
         H         H         1.0       0.805989799140637   0.8274640794593595  0.9336723202291485 1.0000   
         C         C         1.0       0.5519418463875687  0.8972726452210306  0.11330470969819974          1.0000   
         C         C         1.0       0.5617267800741369  0.9055518801665713  0.14199657930659332          1.0000   
         C         C         1.0       0.5863311628693643  0.9006999241259377  0.1489734912070829 1.0000   
         C         C         1.0       0.6021117198437396  0.889001132692546   0.1276158692766048 1.0000   
         C         C         1.0       0.5923320642365034  0.8843009228671667  0.09650656356804212          1.0000   
         C         C         1.0       0.5679803271266058  0.8883060294413386  0.09096905921095112          1.0000   
         H         H         1.0       0.5504973508694561  0.9134882444216107  0.16054884247404   1.0000   
         H         H         1.0       0.5926416079520248  0.9064439823671184  0.1741875527923868 1.0000   
         H         H         1.0       0.605848744989676   0.8777059087267202  0.07885679303348908          1.0000   
         H         H         1.0       0.558430884404233   0.8830116439895479  0.06877444093648233          1.0000   
         C         C         1.0       0.6277336537091975  0.8391708810525587  0.10676384852543   1.0000   
         C         C         1.0       0.6424693812804164  0.858725516839941   0.1190433968240649 1.0000   
         C         C         1.0       0.6680808321241074  0.8565758316968062  0.11329829720501858          1.0000   
         C         C         1.0       0.6776623018660836  0.8368218347729863  0.09760903443467088          1.0000   
         C         C         1.0       0.6629623432905948  0.8183254177818973  0.08394112892303049          1.0000   
         C         C         1.0       0.638113624657909   0.8196400053319894  0.08979034807302065          1.0000   
         C         C         1.0       0.6310155071827374  0.8825721988365898  0.13624328829849242          1.0000   
         C         C         1.0       0.6357809172015051  0.8754846846216069  0.17332392986613018          1.0000   
         C         C         1.0       0.6597854089767626  0.879855377937008   0.1868969817963292 1.0000   
         C         C         1.0       0.664278867581487   0.8746466835843816  0.21837511214169378          1.0000   
         C         C         1.0       0.6456566752048745  0.8661275851847926  0.2359216626757795 1.0000   
         C         C         1.0       0.6237063647003764  0.8579125014880075  0.22137544843248477          1.0000   
         C         C         1.0       0.6188431577105321  0.8616775963842469  0.18994643359257685          1.0000   
         C         C         1.0       0.6498954172712146  0.9091665930675888  0.09157520196550166          1.0000   
         C         C         1.0       0.6660566787512722  0.928118277718012   0.08263936985934035          1.0000   
         C         C         1.0       0.6784517236022215  0.9423490516356161  0.10625725153189867          1.0000   
         C         C         1.0       0.6681783115449008  0.942867484884642   0.13657869453225263          1.0000   
         C         C         1.0       0.6491737588276991  0.9262435215150506  0.14301112871093527          1.0000   
         C         C         1.0       0.6435306929086649  0.9071447042023721  0.12218848698400835          1.0000   
         C         C         1.0       0.7043801421280572  0.9551998504931969  0.09988379321669878          1.0000   
         C         C         1.0       0.7618921673530187  0.9098960055184772  0.049539147156182815         1.0000   
         C         C         1.0       0.7646319615223809  0.9353899125810359  0.05222989503215671          1.0000   
         C         C         1.0       0.7460105779920896  0.9488908765563266  0.06781080010925633          1.0000   
         C         C         1.0       0.7253248428844307  0.9378609687216373  0.08100967489921235          1.0000   
         C         C         1.0       0.7241525295539509  0.9125363839039787  0.08042349351792379          1.0000   
         C         C         1.0       0.7418600088980646  0.8985622937129717  0.06270061321853382          1.0000   
         C         C         1.0       0.7229622828055662  0.9598435858857851  0.1316493795271507 1.0000   
         C         C         1.0       0.7323913556859218  0.9394831149073406  0.14838075899949182          1.0000   
         C         C         1.0       0.754310312847597   0.9423510795085468  0.16751875920925977          1.0000   
         C         C         1.0       0.7663422286778752  0.9646201181636224  0.1689201360420616 1.0000   
         C         C         1.0       0.7553059620189984  0.9851143090955361  0.15435476704171033          1.0000   
         C         C         1.0       0.7334053772415253  0.9823220393999494  0.13695659225422782          1.0000   
         C         C         1.0       0.6848597736167853  0.9993892878324099  0.09043085310989968          1.0000   
         C         C         1.0       0.6575353208301367  0.518197019300406   0.0471596123812937 1.0000   
         C         C         1.0       0.6539098728444883  0.5141960169210247  0.015581530379314203         1.0000   
         C         C         1.0       0.6828301726612305  0.9928501727218018  0.02559922947607018          1.0000   
         C         C         1.0       0.6926752205782036  0.9743075647919116  0.045558986753833075         1.0000   
         C         C         1.0       0.6950547162549717  0.9784815771988012  0.07799727803751516          1.0000   
         H         H         1.0       0.6085144821655011  0.8348022089273932  0.11304533944301313          1.0000   
         H         H         1.0       0.6826414849249665  0.8708243224366877  0.11836958356483196          1.0000   
         H         H         1.0       0.6975788196485686  0.8369295738110437  0.09252556376023831          1.0000   
         H         H         1.0       0.626777278034698   0.8034293838478067  0.08749973356282736          1.0000   
         H         H         1.0       0.6747281945917836  0.88763297770472    0.1712666774752531 1.0000   
         H         H         1.0       0.6812992398950452  0.880055675315064   0.23017609533711517          1.0000   
         H         H         1.0       0.6096512655616471  0.8508409404597181  0.2362282363592042 1.0000   
         H         H         1.0       0.603488616951036   0.8524916928814013  0.17794333932549242          1.0000   
         H         H         1.0       0.6440515222571394  0.8976862739710111  0.07341904789101263          1.0000   
         H         H         1.0       0.6726002223808829  0.9276991178594022  0.05897463901649008          1.0000   
         H         H         1.0       0.6753626898541061  0.9527551096469723  0.15670892266237202          1.0000   
         H         H         1.0       0.6403405751723721  0.9250633780399808  0.1662520100023374 1.0000   
         H         H         1.0       0.780002573078803   0.946950355195727   0.04260452276703172          1.0000   
         H         H         1.0       0.7502314018141943  0.9682761616043813  0.07018870887504006          1.0000   
         H         H         1.0       0.7063138894601848  0.9038739311236247  0.09006351944606827          1.0000   
         H         H         1.0       0.7405082828555033  0.879577879795447   0.05947875795125905          1.0000   
         H         H         1.0       0.721733365877164   0.9233531603871072  0.14994696155612344          1.0000   
         H         H         1.0       0.7622097305339389  0.9265801775196785  0.1815603917029886 1.0000   
         H         H         1.0       0.750457314209744   0.5106444777040146  0.117275699474088  1.0000   
         H         H         1.0       0.7258122322587531  0.9984081418071193  0.12620782431408029          1.0000   
         H         H         1.0       0.6841092300298532  0.0007975897765553075        0.1167015365086471 1.0000   
         H         H         1.0       0.6543454743146127  0.5352324557335022  0.05786135911542515          1.0000   
         H         H         1.0       0.6854619370466871  0.9921870294013911  0.0004640162891929034        1.0000   
         H         H         1.0       0.6997595549357255  0.9580567096617901  0.03309927173450231          1.0000   
         C         C         1.0       0.9674310606137847  0.6354515539235548  0.4312834656371641 1.0000   
         C         C         1.0       0.9591996315478665  0.6124212428511675  0.43988776288564574          1.0000   
         C         C         1.0       0.9345162721095087  0.6079970996034784  0.43952247118801   1.0000   
         C         C         1.0       0.9162470413026477  0.6255139273212582  0.4337284284824677 1.0000   
         C         C         1.0       0.9259719780496173  0.6488049396239025  0.42267901615770254          1.0000   
         C         C         1.0       0.9509565791281054  0.6533737957478944  0.4216738705878909 1.0000   
         H         H         1.0       0.9719866739763113  0.5981657541786194  0.44615168583571413          1.0000   
         H         H         1.0       0.9306122788951062  0.5877603182453173  0.44246102079479516          1.0000   
         H         H         1.0       0.9153830173800552  0.6659975248255566  0.4200193228935362 1.0000   
         H         H         1.0       0.9575025037892575  0.671340908146926   0.41522050698040436          1.0000   
         C         C         1.0       0.8865667894250933  0.5985210701027442  0.4864407974551226 1.0000   
         C         C         1.0       0.8823867962171645  0.5967358415170243  0.4531545782263221 1.0000   
         C         C         1.0       0.8692452931604151  0.5753753885696765  0.4425226755991767 1.0000   
         C         C         1.0       0.8634440662911775  0.556186013703625   0.4628313803213861 1.0000   
         C         C         1.0       0.8686092128598585  0.5593873196635349  0.4947865742504479 1.0000   
         C         C         1.0       0.880688492593658   0.5800283460487744  0.5065277728493159 1.0000   
         C         C         1.0       0.887444693655633   0.6194425566403436  0.4300406899179984 1.0000   
         C         C         1.0       0.8848089669432165  0.6182174056341654  0.3910203112947656 1.0000   
         C         C         1.0       0.8752788709436337  0.637991161847111   0.3738900084685221 1.0000   
         C         C         1.0       0.8736167355279295  0.6381172482275171  0.3408358001595464 1.0000   
         C         C         1.0       0.8821392598508228  0.6173629324133254  0.32476820409356766          1.0000   
         C         C         1.0       0.8895179196645808  0.5962150084415592  0.3408953338341456 1.0000   
         C         C         1.0       0.8916591147962324  0.5974001718101832  0.37355347257435606          1.0000   
         C         C         1.0       0.842182500664168   0.6337384331163368  0.4371641647273175 1.0000   
         C         C         1.0       0.8235311506669684  0.6487032668573446  0.4483165034835001 1.0000   
         C         C         1.0       0.8293674151032784  0.6707360411415186  0.4656290391174314 1.0000   
         C         C         1.0       0.8539359372896187  0.6766620044140437  0.4704097276470595 1.0000   
         C         C         1.0       0.8729471704365535  0.662583474625578   0.45807542091265113          1.0000   
         C         C         1.0       0.8675064117836283  0.6390883350779103  0.44356516940984553          1.0000   
         C         C         1.0       0.8078359010353245  0.6893249726622563  0.47811978685179934          1.0000   
         C         C         1.0       0.7580965095525648  0.6476166824696812  0.5349820532964976 1.0000   
         C         C         1.0       0.7834560015567523  0.6436567155244339  0.5386812003912863 1.0000   
         C         C         1.0       0.7984395599447865  0.656011974166937   0.5190719459400628 1.0000   
         C         C         1.0       0.7895232047737777  0.6756982809800044  0.4996944848971107 1.0000   
         C         C         1.0       0.7645564957698372  0.6811727264801049  0.501085836804218  1.0000   
         C         C         1.0       0.7488464874875964  0.6665123908787305  0.5164729857316667 1.0000   
         C         C         1.0       0.7982212840754067  0.6978760606203427  0.44349953556674737          1.0000   
         C         C         1.0       0.8110761549281877  0.7161997667739363  0.42837024998222   1.0000   
         C         C         1.0       0.8042126009324989  0.7243028397518572  0.39847364938062796          1.0000   
         C         C         1.0       0.781150195815195   0.716400328711809   0.3855142636498534 1.0000   
         C         C         1.0       0.7702046367450454  0.6958596371033893  0.39690988479178024          1.0000   
         C         C         1.0       0.7784240648617228  0.6873423927946312  0.42694655652760666          1.0000   
         C         C         1.0       0.8000563330139561  0.7327570477144325  0.5006862368787999 1.0000   
         C         C         1.0       0.8018783602143966  0.7520143110994759  0.5212478985985566 1.0000   
         C         C         1.0       0.8199447896841989  0.7505527703650808  0.5447534611217183 1.0000   
         C         C         1.0       0.8333843427381384  0.7300375255684916  0.5499184615637076 1.0000   
         C         C         1.0       0.8305891427093863  0.7099908031471925  0.5296094002211625 1.0000   
         C         C         1.0       0.8150372526099623  0.711787258234793   0.5028819968432453 1.0000   
         H         H         1.0       0.8947880734776156  0.6151631434821432  0.49648197406512273          1.0000   
         H         H         1.0       0.8647224684852675  0.575745346773049   0.41746868911790286          1.0000   
         H         H         1.0       0.8523874444186462  0.5418033449832642  0.45112462358015687          1.0000   
         H         H         1.0       0.8847431225404719  0.5825271748876336  0.5319899094511654 1.0000   
         H         H         1.0       0.8695741585938319  0.653189809889923   0.3888463274677813 1.0000   
         H         H         1.0       0.8633034383259547  0.6512205806954459  0.3263676906629085 1.0000   
         H         H         1.0       0.8965355705130669  0.5823044688927349  0.32812823292228815          1.0000   
         H         H         1.0       0.9065554300593348  0.5841744931620961  0.3814422092157381 1.0000   
         H         H         1.0       0.8356268424030947  0.6158460701850229  0.42558362868200705          1.0000   
         H         H         1.0       0.80370913955639    0.6443267184196755  0.44424166349356076          1.0000   
         H         H         1.0       0.8582877038076564  0.6938795882081259  0.48201300101402544          1.0000   
         H         H         1.0       0.8919506506779482  0.66724941941472    0.46457402172176393          1.0000   
         H         H         1.0       0.7919792925073782  0.6276719488797761  0.5494622629530245 1.0000   
         H         H         1.0       0.8178878683136377  0.6494773350953682  0.5184011853702115 1.0000   
         H         H         1.0       0.7563857746980645  0.6943225881734983  0.48500884815297896          1.0000   
         H         H         1.0       0.7290136400465467  0.6678002857044143  0.5133731150730584 1.0000   
         H         H         1.0       0.8296086442000935  0.7238112583927525  0.4367019833423057 1.0000   
         H         H         1.0       0.816126222188199   0.7371034185865284  0.3849635697953379 1.0000   
         H         H         1.0       0.7549447446069764  0.6885066046876296  0.3826994301252106 1.0000   
         H         H         1.0       0.7696114545919943  0.6718242462265761  0.4375697789110237 1.0000   
         H         H         1.0       0.7855851735591302  0.731802256166879   0.4836315508291376 1.0000   
         H         H         1.0       0.7928718412796969  0.7679902182732715  0.5116275914369467 1.0000   
         H         H         1.0       0.8420699505484246  0.7302211046982856  0.5734064355750428 1.0000   
         H         H         1.0       0.8414512956906293  0.6935063635117235  0.533417089559929  1.0000   
         C         C         1.0       0.6072030007978105  0.642046792597553   0.7345965741541967 1.0000   
         C         C         1.0       0.5935230626204977  0.6232112162110446  0.7203149742058319 1.0000   
         C         C         1.0       0.5920649857858317  0.6207893173019171  0.6877841076144772 1.0000   
         C         C         1.0       0.6044537410639602  0.6371486386202281  0.6683839793460415 1.0000   
         C         C         1.0       0.618310466691184   0.655380270095426   0.6827533470290288 1.0000   
         C         C         1.0       0.6201555683180117  0.6573733395908067  0.7150578940226991 1.0000   
         H         H         1.0       0.5826544956582129  0.6126015278857259  0.7340817482300329 1.0000   
         H         H         1.0       0.5810256682349514  0.6044207590052144  0.6795482723657484 1.0000   
         H         H         1.0       0.6290436885254442  0.6675453122473183  0.6684995425853161 1.0000   
         H         H         1.0       0.6336959170141375  0.6708696616540045  0.7234353619907459 1.0000   
         C         C         1.0       0.6085045313416757  0.6784870962122029  0.6140884788417292 1.0000   
         C         C         1.0       0.6109921119273992  0.6529879924337416  0.6061656711032496 1.0000   
         C         C         1.0       0.6232681161541209  0.6468292006381895  0.5774018119666346 1.0000   
         C         C         1.0       0.6320275065985343  0.6650162349390393  0.5583698550800262 1.0000   
         C         C         1.0       0.6300411284785457  0.6894489426752496  0.567323763856906  1.0000   
         C         C         1.0       0.6174246772506635  0.6963144097267713  0.5943050534996001 1.0000   
         C         C         1.0       0.6017431577262305  0.632095920563869   0.6296498148688774 1.0000   
         C         C         1.0       0.5730103894763907  0.6303114812506858  0.6152945406981218 1.0000   
         C         C         1.0       0.5681490149031853  0.6161732407708833  0.5882900323166015 1.0000   
         C         C         1.0       0.5436353993156212  0.6139444269056833  0.5756003318870178 1.0000   
         C         C         1.0       0.5239930062905072  0.6269088091744881  0.588888045038347  1.0000   
         C         C         1.0       0.5303522728423842  0.6420945743667049  0.6155894461914456 1.0000   
         C         C         1.0       0.553777765292981   0.643452597778481   0.6280504006392478 1.0000   
         C         C         1.0       0.6458458952232425  0.6102310491012418  0.627436278585666  1.0000   
         C         C         1.0       0.6600485428528691  0.5913906352791845  0.6216480765597283 1.0000   
         C         C         1.0       0.6506005821423719  0.5689148441648723  0.6112703650123752 1.0000   
         C         C         1.0       0.6257099697585491  0.5654146455869716  0.6157771848124902 1.0000   
         C         C         1.0       0.6099740289041856  0.5850869600459572  0.6244095649581294 1.0000   
         C         C         1.0       0.619790354446544   0.6085242553562689  0.6270785756790702 1.0000   
         C         C         1.0       0.6690068169923736  0.5493056628326765  0.5988937655817655 1.0000   
         C         C         1.0       0.7206145954429842  0.5867415735654046  0.5375056505001862 1.0000   
         C         C         1.0       0.7300312040260708  0.5669976824191474  0.5545348043552859 1.0000   
         C         C         1.0       0.7140493026358133  0.5522746986233402  0.5703667985191441 1.0000   
         C         C         1.0       0.6883756983667241  0.5593953945093738  0.5719011382173793 1.0000   
         C         C         1.0       0.6786933950760575  0.5767585808302041  0.5515342712326796 1.0000   
         C         C         1.0       0.6953201328678013  0.5910746798286373  0.536260258351565  1.0000   
         C         C         1.0       0.6577376288728991  0.5258009925079863  0.5792443330169991 1.0000   
         C         C         1.0       0.670832885823678   0.5032995332782517  0.5794222424810382 1.0000   
         C         C         1.0       0.6790151763784453  0.9921756178028452  0.5697824408243456 1.0000   
         C         C         1.0       0.6414749819815057  0.4849867389459648  0.5432998862025887 1.0000   
         C         C         1.0       0.627530192837131   0.5071008246199006  0.5434545129706669 1.0000   
         C         C         1.0       0.6362705580071953  0.527691059369187   0.5595137902892113 1.0000   
         C         C         1.0       0.673419739763623   0.5252166243351433  0.6505256680121818 1.0000   
         C         C         1.0       0.6841418742588021  0.5190295636684729  0.6784053969838616 1.0000   
         C         C         1.0       0.7062041271249908  0.5291249689147354  0.6874597372038072 1.0000   
         C         C         1.0       0.7160387692206173  0.5479693498885307  0.6715458644917797 1.0000   
         C         C         1.0       0.7054426971042829  0.5543584776721935  0.6421499483102183 1.0000   
         C         C         1.0       0.6837532383588815  0.5421341353220861  0.6309852805064159 1.0000   
         H         H         1.0       0.5995671537994762  0.6846380073736176  0.6353669774158655 1.0000   
         H         H         1.0       0.6238401463734964  0.6281462015167308  0.5697718821656315 1.0000   
         H         H         1.0       0.6395014515552818  0.6599632188292307  0.5338558885077835 1.0000   
         H         H         1.0       0.6148473053098793  0.7149945871334821  0.6018607665439936 1.0000   
         H         H         1.0       0.5826232796492313  0.6064825490495956  0.5766706582175235 1.0000   
         H         H         1.0       0.5406184674142301  0.6031798381604931  0.5532063692809511 1.0000   
         H         H         1.0       0.5145699269704567  0.6510504863327901  0.6289444654818094 1.0000   
         H         H         1.0       0.557563453895899   0.6585525986711562  0.6432393951074089 1.0000   
         H         H         1.0       0.6547168614396726  0.6289703839653538  0.628128265697862  1.0000   
         H         H         1.0       0.678963559894128   0.5983253389745935  0.6199817589950661 1.0000   
         H         H         1.0       0.6185537645651836  0.546620502366973   0.6157633267375944 1.0000   
         H         H         1.0       0.590988606751765   0.5796000948321359  0.6272310715848624 1.0000   
         H         H         1.0       0.749957077411217   0.5633382245914882  0.552100433933086  1.0000   
         H         H         1.0       0.7235311059202929  0.5378949722347502  0.5827624969112075 1.0000   
         H         H         1.0       0.6593670639781504  0.5833401104883875  0.5521654628635968 1.0000   
         H         H         1.0       0.6864698763106685  0.6044948664368027  0.5207978546500455 1.0000   
         H         H         1.0       0.6893066727355872  0.5003968610017315  0.5924777998533856 1.0000   
         H         H         1.0       0.6942638855016598  0.9788207611490893  0.568213730723505  1.0000   
         H         H         1.0       0.6089854019329124  0.506777555872347   0.5342662403643373 1.0000   
         H         H         1.0       0.6261481972052518  0.5461660454413264  0.5578653157741499 1.0000   
         H         H         1.0       0.6576528922179826  0.5139417195231556  0.6420862730693861 1.0000   
         H         H         1.0       0.6747829962674335  0.5069584670720394  0.6939821485230476 1.0000   
         H         H         1.0       0.7339296494377225  0.5561031888597133  0.6786139768746908 1.0000   
         H         H         1.0       0.7138883073390075  0.5683990489078481  0.6306699295658502 1.0000   
         C         C         1.0       0.5526176763199947  0.8566428811661009  0.43890496601961476          1.0000   
         C         C         1.0       0.5655248548531977  0.8469745659992789  0.4134575303277776 1.0000   
         C         C         1.0       0.5901265476405204  0.8540041607059145  0.4085054882464708 1.0000   
         C         C         1.0       0.6020493745019537  0.8722509996944379  0.4283836547198301 1.0000   
         C         C         1.0       0.5893576718046075  0.8781864751340973  0.45674857234744576          1.0000   
         C         C         1.0       0.5654238375106816  0.8706036651518988  0.4619903503821029 1.0000   
         H         H         1.0       0.5564626933265329  0.8355084175856548  0.39478651630036815          1.0000   
         H         H         1.0       0.6005053020525977  0.8461199647677679  0.38893689910755813          1.0000   
         H         H         1.0       0.598530681827861   0.8886000709338899  0.47540301446918676          1.0000   
         H         H         1.0       0.5556278358295529  0.8779967378657635  0.48237521845238723          1.0000   
         C         C         1.0       0.6262238248491248  0.9247252014220909  0.4395108711078174 1.0000   
         C         C         1.0       0.6403405395927649  0.9031860516567332  0.43907912872103755          1.0000   
         C         C         1.0       0.663865062721178   0.9044714701602268  0.4552968506436657 1.0000   
         C         C         1.0       0.6714970581309418  0.9245405212094032  0.47172147419486693          1.0000   
         C         C         1.0       0.6575017602390046  0.9459399629533617  0.46995429643155573          1.0000   
         C         C         1.0       0.6338279530376835  0.9455107408492726  0.45520603323858844          1.0000   
         C         C         1.0       0.631022537850753   0.8788646539801812  0.42299114634014573          1.0000   
         C         C         1.0       0.6362766377407145  0.8873951452130424  0.38656107118830374          1.0000   
         C         C         1.0       0.661242102593172   0.8852360097207755  0.3762831056370635 1.0000   
         C         C         1.0       0.6653842603039706  0.8886048507311229  0.34462397788827576          1.0000   
         C         C         1.0       0.6467258894686666  0.8940430176452083  0.32282480460938917          1.0000   
         C         C         1.0       0.6224612793428465  0.8980714828324309  0.3335064035261896 1.0000   
         C         C         1.0       0.6176615413522195  0.8946437989988859  0.3652105074780693 1.0000   
         C         C         1.0       0.6471525521089858  0.8453348095497332  0.4631221339206561 1.0000   
         C         C         1.0       0.6603499291087193  0.8254091813439638  0.4708058766004724 1.0000   
         C         C         1.0       0.6724791012446477  0.8122961614619898  0.4479809813422593 1.0000   
         C         C         1.0       0.6661771515357525  0.8179940441404033  0.41635407048540096          1.0000   
         C         C         1.0       0.6495132033911991  0.836817222761216   0.40819892704100397          1.0000   
         C         C         1.0       0.6442958327428114  0.8541134166129968  0.4319407534037858 1.0000   
         C         C         1.0       0.6958840264110288  0.7951606095407769  0.4589363685668832 1.0000   
         C         C         1.0       0.7440936034969446  0.8569177648412084  0.48953519050949074          1.0000   
         C         C         1.0       0.7353305679667135  0.8418959738462838  0.5111126510916207 1.0000   
         C         C         1.0       0.7193317557516234  0.8227949851729746  0.5013060884323846 1.0000   
         C         C         1.0       0.7144583151612556  0.8176885258817267  0.4693776485008693 1.0000   
         C         C         1.0       0.7248313949912638  0.8331546290675075  0.44791405696119563          1.0000   
         C         C         1.0       0.7382617370289001  0.8530462290940369  0.4568946570070694 1.0000   
         C         C         1.0       0.7092727758840925  0.7786838510443831  0.43179209072741565          1.0000   
         C         C         1.0       0.6952005799785715  0.7640350959342085  0.41032973811889745          1.0000   
         C         C         1.0       0.7070731902543965  0.7503809328573294  0.3879309170155508 1.0000   
         C         C         1.0       0.7330519851925915  0.7487094357924082  0.38657948616268695          1.0000   
         C         C         1.0       0.7465185078902976  0.7619053390910973  0.4094995022547497 1.0000   
         C         C         1.0       0.7352253630998954  0.7759350701304544  0.4314977333145056 1.0000   
         C         C         1.0       0.7047301440563362  0.7634026792800356  0.5053613678721873 1.0000   
         C         C         1.0       0.6977938909251317  0.743717961401167   0.5235807979991686 1.0000   
         C         C         1.0       0.6760696505235222  0.7319249824949741  0.5173648212424744 1.0000   
         C         C         1.0       0.660878761524331   0.7403699116091846  0.4935256565410614 1.0000   
         C         C         1.0       0.664828487280273   0.7618810831662681  0.4776606550339507 1.0000   
         C         C         1.0       0.6879288014527748  0.7743946499377297  0.482946995689851  1.0000   
         H         H         1.0       0.6091135614110229  0.9256993499212318  0.42556033377464786          1.0000   
         H         H         1.0       0.6742808156062511  0.8890818496501842  0.45422003889456747          1.0000   
         H         H         1.0       0.6870038635356901  0.9250082607010365  0.48865140657131445          1.0000   
         H         H         1.0       0.6202738160874565  0.9617812579804332  0.45844899610814666          1.0000   
         H         H         1.0       0.6764903787879057  0.8793681772602772  0.39240712411443296          1.0000   
         H         H         1.0       0.6836753864650663  0.8862179041720828  0.33748543553926785          1.0000   
         H         H         1.0       0.6064446494139896  0.9002364884217239  0.3164798732816181 1.0000   
         H         H         1.0       0.5974170357507161  0.8957942990617088  0.37174231395373497          1.0000   
         H         H         1.0       0.636794607016889   0.856692580528167   0.48260411338020903          1.0000   
         H         H         1.0       0.6636537240413124  0.8222853813931913  0.4964130696069334 1.0000   
         H         H         1.0       0.6743632618341414  0.8087551779071663  0.39639921273725015          1.0000   
         H         H         1.0       0.6454954796044508  0.8402424231010787  0.3827051338064049 1.0000   
         H         H         1.0       0.7401010820057328  0.8446029684536936  0.5374869624571152 1.0000   
         H         H         1.0       0.7124981374640027  0.8110316076614655  0.5198647441237461 1.0000   
         H         H         1.0       0.7234055765301192  0.8304518852340812  0.422307710387367  1.0000   
         H         H         1.0       0.7467576589321108  0.8655203624664002  0.43906374246180535          1.0000   
         H         H         1.0       0.6740877573371324  0.7636907724012899  0.41250607315379945          1.0000   
         H         H         1.0       0.6947484288608253  0.7388026702493374  0.3731013253961734 1.0000   
         H         H         1.0       0.7666106339742037  0.7628003671537718  0.4076288252928414 1.0000   
         H         H         1.0       0.7472577631062346  0.7839645065514099  0.4510998187230192 1.0000   
         H         H         1.0       0.7233033741878577  0.7687206121610413  0.5103536863190253 1.0000   
         H         H         1.0       0.7109223456904741  0.7355910763799748  0.5409005227769562 1.0000   
         H         H         1.0       0.6438653116949048  0.730642729569242   0.48415609368094586          1.0000   
         H         H         1.0       0.6500426448320229  0.7682655444006361  0.4611069890528588 1.0000   
         C         C         1.0       0.8714669247416457  0.8823875388133878  0.7240443892887775 1.0000   
         C         C         1.0       0.8772432218270542  0.9035105514659348  0.7072921341995969 1.0000   
         C         C         1.0       0.8778465147008241  0.9026372389663663  0.6745221122867411 1.0000   
         C         C         1.0       0.8702868824116546  0.8814890211553265  0.657735983760338  1.0000   
         C         C         1.0       0.865325356561735   0.8604209469687248  0.6748879539409458 1.0000   
         C         C         1.0       0.866077099754838   0.8613234861488083  0.7075262266157454 1.0000   
         H         H         1.0       0.8767817177283082  0.9202150614903303  0.7211131819443973 1.0000   
         H         H         1.0       0.8808902973764715  0.9202051739547281  0.6608862894541501 1.0000   
         H         H         1.0       0.8595408791558256  0.8425160324717312  0.6640452915626494 1.0000   
         H         H         1.0       0.8623366177736089  0.8451607279315934  0.721076176176068  1.0000   
         C         C         1.0       0.8740867631162931  0.8353946440567394  0.6080985909252786 1.0000   
         C         C         1.0       0.861801723043299   0.8575719989792225  0.602305812083052  1.0000   
         C         C         1.0       0.8409045016643042  0.8559565298632542  0.5816389713045347 1.0000   
         C         C         1.0       0.8336310931299792  0.8346061884898842  0.5676565323474095 1.0000   
         C         C         1.0       0.8476906082611747  0.8128861318376877  0.5723743761295874 1.0000   
         C         C         1.0       0.867613257180378   0.8132377986889762  0.5926507839900754 1.0000   
         C         C         1.0       0.8701845506694634  0.8832229174258845  0.6181427587271335 1.0000   
         C         C         1.0       0.8992864888627976  0.8867578377313072  0.6061971472857485 1.0000   
         C         C         1.0       0.9035870360183635  0.8847723190466071  0.5736272167712725 1.0000   
         C         C         1.0       0.9272577474214801  0.8848586804492892  0.5599452505461868 1.0000   
         C         C         1.0       0.9484863848937041  0.8860882788921415  0.5803392736434199 1.0000   
         C         C         1.0       0.944891023498417   0.8886970558804025  0.613189749163241  1.0000   
         C         C         1.0       0.921451852627024   0.8875178610010569  0.6249762713982064 1.0000   
         C         C         1.0       0.8290581435839339  0.9058049408856456  0.6221054708958841 1.0000   
         C         C         1.0       0.8127372498345171  0.925272354049131   0.618463949986169  1.0000   
         C         C         1.0       0.8165829660461826  0.9449047985080324  0.5988993717592643 1.0000   
         C         C         1.0       0.8387355834355137  0.9429435106580908  0.5806274657400934 1.0000   
         C         C         1.0       0.8558535340707589  0.9238129748245051  0.5862209425108197 1.0000   
         C         C         1.0       0.8515253354152563  0.9060254833005796  0.6084366665790935 1.0000   
         C         C         1.0       0.7951871320181234  0.966108492148569   0.5913005337320935 1.0000   
         C         C         1.0       0.7549414271524322  0.9209366897541308  0.5200889662383005 1.0000   
         C         C         1.0       0.7464706276839098  0.9213660837285258  0.5500744102816253 1.0000   
         C         C         1.0       0.7579235984793887  0.9375170581758095  0.5708797359477695 1.0000   
         C         C         1.0       0.7790811924005054  0.950868225737092   0.5637436058730283 1.0000   
         C         C         1.0       0.7868221263017069  0.9494397293986636  0.5332665376987997 1.0000   
         C         C         1.0       0.7745865919703864  0.9347385755848543  0.5107676845737359 1.0000   
         C         C         1.0       0.806552795909449   0.9909605830010905  0.5777870201317673 1.0000   
         C         C         1.0       0.8267817283018567  0.5017703530791835  0.5999199948983087 1.0000   
         C         C         1.0       0.837973449254943   0.5204008914043988  0.5837989830516591 1.0000   
         C         C         1.0       0.8272214142113572  0.5296020244810508  0.5573013699600565 1.0000   
         C         C         1.0       0.8050240242679471  0.5190313717316113  0.5454233648607067 1.0000   
         C         C         1.0       0.7927629666026479  0.004657026007671705         0.553925918481254  1.0000   
         C         C         1.0       0.7560157813073807  0.9837123174039412  0.6177632960406605 1.0000   
         C         C         1.0       0.7414992688471976  0.9873182852126857  0.6438555347053129 1.0000   
         C         C         1.0       0.7528220827369846  0.987468400442997   0.6743182841528582 1.0000   
         C         C         1.0       0.7777336752345937  0.9825649053079053  0.6780555216552439 1.0000   
         C         C         1.0       0.7911125559595692  0.9751876746994979  0.652317598600209  1.0000   
         C         C         1.0       0.7804399821316589  0.9739659123833039  0.6226215569553154 1.0000   
         H         H         1.0       0.8892710257073357  0.8352104998502655  0.623954268967899  1.0000   
         H         H         1.0       0.8289457243813652  0.8719629368615653  0.5740771860761207 1.0000   
         H         H         1.0       0.8177735769604906  0.8338696306912985  0.5508606418684285 1.0000   
         H         H         1.0       0.8792842404481332  0.797992214623568   0.5995091128327924 1.0000   
         H         H         1.0       0.8878590962812056  0.8842353136257756  0.5574522004242355 1.0000   
         H         H         1.0       0.9300875478808294  0.8853388754351459  0.5341228096037482 1.0000   
         H         H         1.0       0.9596561521057705  0.8897402143149838  0.6320366617038864 1.0000   
         H         H         1.0       0.9201262268489859  0.8882215025770545  0.6511121249082035 1.0000   
         H         H         1.0       0.8244120970144677  0.8905187853509455  0.6360157444510492 1.0000   
         H         H         1.0       0.7976460858041553  0.9241046503157543  0.6343456767311992 1.0000   
         H         H         1.0       0.8441087604468234  0.9556082898876325  0.5622796336058188 1.0000   
         H         H         1.0       0.871597359988524   0.9240333573693508  0.5705756162782111 1.0000   
         H         H         1.0       0.7316093035938155  0.9083090597792197  0.556671759388901  1.0000   
         H         H         1.0       0.7533006153873902  0.9338178394666345  0.595803796855727  1.0000   
         H         H         1.0       0.8042272139515704  0.9582516435084676  0.5264649760657779 1.0000   
         H         H         1.0       0.7800263590570852  0.9335893916394665  0.4860097038992623 1.0000   
         H         H         1.0       0.8399685010495749  0.9927809730202738  0.6104957828935615 1.0000   
         H         H         1.0       0.8559049185717884  0.5287538808742265  0.5934949531753975 1.0000   
         H         H         1.0       0.7948778794435878  0.5218422229436589  0.5232214056973941 1.0000   
         H         H         1.0       0.7738124579571994  0.0014532933040170004        0.5470525507593021 1.0000   
         H         H         1.0       0.7494319016906407  0.9893456429539389  0.5939306330569372 1.0000   
         H         H         1.0       0.7212609788577803  0.9899382794282509  0.6404165115146091 1.0000   
         H         H         1.0       0.7880859665807313  0.9829485684426977  0.7000172616519486 1.0000   
         H         H         1.0       0.8114222117438197  0.9704758221379165  0.6572155389228647 1.0000   
         C         C         1.0       0.03981477641477534           0.6330554194638105 0.08326883927552854          1.0000   
         C         C         1.0       0.052412593026538605          0.6384751846138075 0.10982462523888008          1.0000   
         C         C         1.0       0.07748719838727487           0.6332023495005905 0.11002576105933323          1.0000   
         C         C         1.0       0.09042267720433517           0.6190504021873241 0.08522298117172426          1.0000   
         C         C         1.0       0.07515933905315053           0.6147771244752517 0.05942109492416126          1.0000   
         C         C         1.0       0.05051161360318516           0.6209677287673765 0.05881494173881054          1.0000   
         H         H         1.0       0.04422178086769513           0.6460332302871697 0.13044297785698383          1.0000   
         H         H         1.0       0.08827564126379008           0.6363616730248132 0.1315905188777445 1.0000   
         H         H         1.0       0.08220924025200223           0.607772265100242  0.03715900955673888          1.0000   
         H         H         1.0       0.04073948349477909           0.6180554753146699 0.03518179810403702          1.0000   
         C         C         1.0       0.11399881534274418           0.5663385070883361 0.06037825043938246          1.0000   
         C         C         1.0       0.12852666018307432           0.5861537946446075 0.06998881036979562          1.0000   
         C         C         1.0       0.15397600014597376           0.5848210305237784 0.06418181380710758          1.0000   
         C         C         1.0       0.16294226676071094           0.5666640814055504 0.04592071746769308          1.0000   
         C         C         1.0       0.14804897567448885           0.5475305369554877 0.03613116410896034          1.0000   
         C         C         1.0       0.12253054143838293           0.547263384555232  0.04314675790541659          1.0000   
         C         C         1.0       0.11856559481141758           0.6097600397751436 0.08972351595823212          1.0000   
         C         C         1.0       0.1243435493360749  0.6006280590658347  0.12459750699733857          1.0000   
         C         C         1.0       0.1473221881357066  0.6048913063447081  0.1404697170978784 1.0000   
         C         C         1.0       0.14976224032429375           0.5996522820529465 0.17173148974816227          1.0000   
         C         C         1.0       0.13073676987232377           0.5887177928166514 0.18876346544173683          1.0000   
         C         C         1.0       0.11075912193127828           0.5795897544073023 0.17132207620204162          1.0000   
         C         C         1.0       0.107073964327399   0.5860028074512642  0.13864657674185732          1.0000   
         C         C         1.0       0.13642031680434416           0.6395859644613959 0.04604435569281763          1.0000   
         C         C         1.0       0.15359865956767285           0.6573711028921684 0.03856977222740438          1.0000   
         C         C         1.0       0.16787850251661435           0.6684967976386861 0.06235632391259987          1.0000   
         C         C         1.0       0.1604764173670317  0.6662976897536669  0.09304701000911875          1.0000   
         C         C         1.0       0.14200994955551682           0.6498544957325065 0.09985698524421989          1.0000   
         C         C         1.0       0.13160183079811918           0.634465492929552  0.07767230634695496          1.0000   
         C         C         1.0       0.19339119945207228           0.68169253112978   0.0540046365800178 1.0000   
         C         C         1.0       0.22830981701270361           0.6186962166341851 0.005574265350826252         1.0000   
         C         C         1.0       0.2156942316466947  0.6360283600439578  0.987486817041483  1.0000   
         C         C         1.0       0.20615436889790417           0.656361089440375  0.002745415817255737         1.0000   
         C         C         1.0       0.20711265130560477           0.6600668968283127 0.03629785872808456          1.0000   
         C         C         1.0       0.21647161869995352           0.640102580408929  0.05350184564679234          1.0000   
         C         C         1.0       0.22611890954461247           0.6189726831692083 0.03863836339172172          1.0000   
         C         C         1.0       0.21011516163767208           0.6947601409941022 0.08254924575055829          1.0000   
         C         C         1.0       0.20116754170580495           0.7115069867075651 0.10422121158333225          1.0000   
         C         C         1.0       0.21698077317128567           0.7213754801012155 0.12651579638396396          1.0000   
         C         C         1.0       0.24267752034304238           0.7158243028164043 0.12701749079787097          1.0000   
         C         C         1.0       0.2520944507697039  0.7006914441071499  0.10448748461691637          1.0000   
         C         C         1.0       0.2358986791529814  0.6920181608939674  0.08091844067746957          1.0000   
         C         C         1.0       0.20934794828613684           0.7163358410376265 0.01719367002214083          1.0000   
         C         C         1.0       0.20748835058887136           0.7381766602168759 0.0023215178410242263        1.0000   
         C         C         1.0       0.18426241594810658           0.7506742924585895 0.00036562877694169946       1.0000   
         C         C         1.0       0.16391259506910577           0.7414427984737205 0.014101376273723439         1.0000   
         C         C         1.0       0.16607881858637272           0.7200615037446475 0.03247222282375227          1.0000   
         C         C         1.0       0.1884351066079731  0.706145625583481   0.03190985923967721          1.0000   
         H         H         1.0       0.0943797156241736  0.5681969004392079  0.06749236114842565          1.0000   
         H         H         1.0       0.16635615048274988           0.5989179840732335 0.07193662148724357          1.0000   
         H         H         1.0       0.18267045719963804           0.5673881118768664 0.04070030245339408          1.0000   
         H         H         1.0       0.10931008947723025           0.5337935268596083 0.0351728354092799 1.0000   
         H         H         1.0       0.1634152768441406  0.6120159140014535  0.1280435744645104 1.0000   
         H         H         1.0       0.16621044370603796           0.6044675457660182 0.18447487326950704          1.0000   
         H         H         1.0       0.0979599758925173  0.5679747628457883  0.18339257996670538          1.0000   
         H         H         1.0       0.0883662771209983  0.5817685634545766  0.1262527849036242 1.0000   
         H         H         1.0       0.13041670503975214           0.6278290795878892 0.026185549462201207         1.0000   
         H         H         1.0       0.15585224519564875           0.6626936876104605 0.0138960106678752 1.0000   
         H         H         1.0       0.1707730010581285  0.6749239663292188  0.11330419614220907          1.0000   
         H         H         1.0       0.1388574888957172  0.6490329198803382  0.1245267998927141 1.0000   
         H         H         1.0       0.21485663852352713           0.6333413687117484 0.9610110272470259 1.0000   
         H         H         1.0       0.19836638036837473           0.671308770451073  0.9878259018175133 1.0000   
         H         H         1.0       0.21496494171666491           0.6394068534613341 0.07901265387275762          1.0000   
         H         H         1.0       0.23432039805042748           0.6044140121728944 0.053939206954295854         1.0000   
         H         H         1.0       0.18125028575659036           0.715530219534057  0.104665132626937  1.0000   
         H         H         1.0       0.21032759700767484           0.7348215966012793 0.1434999670543422 1.0000   
         H         H         1.0       0.2709257195746089  0.6952427381734302  0.10344720639267546          1.0000   
         H         H         1.0       0.2446720728523541  0.6821793105804724  0.0628828743950835 1.0000   
         H         H         1.0       0.2274995100303366  0.7092069026247839  0.020320248777895338         1.0000   
         H         H         1.0       0.2240542703583314  0.7459072133087532  0.9936997397171659 1.0000   
         H         H         1.0       0.1448004730017957  0.7508072634253514  0.013388714985803013         1.0000   
         H         H         1.0       0.15202833362911147           0.714782496912886  0.048660266982309075         1.0000   
         C         C         1.0       0.40182178437475335           0.6265528412008279 0.8093456493911615 1.0000   
         C         C         1.0       0.41281145648216255           0.6040804515301894 0.8188030749935212 1.0000   
         C         C         1.0       0.41636812558809316           0.6001570428469389 0.852579078380214  1.0000   
         C         C         1.0       0.4070163749584332  0.6159825569712986  0.8750802685197574 1.0000   
         C         C         1.0       0.3937347414018571  0.6361835219925225  0.8636455502519036 1.0000   
         C         C         1.0       0.38979049446746405           0.6407512485687509 0.8322263050706443 1.0000   
         H         H         1.0       0.41857110111740786           0.5897726690631379 0.8016529174514867 1.0000   
         H         H         1.0       0.42663948176522576           0.5829692603218539 0.8617097717299448 1.0000   
         H         H         1.0       0.38621494099406195           0.6502711827661817 0.8793588705771908 1.0000   
         H         H         1.0       0.38215830632952996           0.6583012359429488 0.8251230243684252 1.0000   
         C         C         1.0       0.4188371537218423  0.6558124206323193  0.9266910967840629 1.0000   
         C         C         1.0       0.4087592589275315  0.6334941014479093  0.9352356140653759 1.0000   
         C         C         1.0       0.39633038071869797           0.6325115342512416 0.9655593926448734 1.0000   
         C         C         1.0       0.39419539463331066           0.6537291846957046 0.9828217489788794 1.0000   
         C         C         1.0       0.40245089796426814           0.6757528875659878 0.9726614923403994 1.0000   
         C         C         1.0       0.41501935363073805           0.6763811965524398 0.9445863813721107 1.0000   
         C         C         1.0       0.41186460506445355           0.6105765700420391 0.9117241058016096 1.0000   
         C         C         1.0       0.4401408928269604  0.6031988616688516  0.9231423927263522 1.0000   
         C         C         1.0       0.4452623974660405  0.592027206904245   0.9526460139841836 1.0000   
         C         C         1.0       0.4698808871093203  0.5915513070847324  0.9657175535103523 1.0000   
         C         C         1.0       0.48886945964523787           0.6005228449160194 0.9472869881743421 1.0000   
         C         C         1.0       0.48387760937192675           0.6115072800610097 0.9191010295965768 1.0000   
         C         C         1.0       0.460002574132763   0.6135028429673297  0.9085099259409437 1.0000   
         C         C         1.0       0.3663122668837454  0.5957119220691903  0.9150614974776486 1.0000   
         C         C         1.0       0.3482654623177102  0.5783793331600474  0.9201582308567482 1.0000   
         C         C         1.0       0.3558281485650335  0.5534228189727732  0.9210238101342091 1.0000   
         C         C         1.0       0.3803295739797866  0.54722706231577    0.9175430281179013 1.0000   
         C         C         1.0       0.39764878624565436           0.5650062133446421 0.9151118431698189 1.0000   
         C         C         1.0       0.3907397154025401  0.5895155318329959  0.9160635397385233 1.0000   
         C         C         1.0       0.33503274626282253           0.534144494761866  0.9278979147854839 1.0000   
         C         C         1.0       0.2723227171646405  0.5616881946243716  0.9884804209341915 1.0000   
         C         C         1.0       0.2674923171836568  0.5444475299044321  0.9654421460019867 1.0000   
         C         C         1.0       0.28664628141024195           0.5356660125589618 0.9461039750333484 1.0000   
         C         C         1.0       0.3118230228549606  0.5453109207545782  0.9495719335615462 1.0000   
         C         C         1.0       0.31597973509791766           0.5613484935045309 0.9747207193509703 1.0000   
         C         C         1.0       0.2971614974891358  0.5697816674552549  0.9931587926131854 1.0000   
         C         C         1.0       0.34104845471327816           0.511356039976819  0.9480374454175117 1.0000   
         C         C         1.0       0.343626828287966   0.002166530509267517         0.9677999030582054 1.0000   
         C         C         1.0       0.35291698824208906           0.9821505033201153 0.9839432145684529 1.0000   
         C         C         1.0       0.372883740841312   0.9860049435770257  0.0055106559578247515        1.0000   
         C         C         1.0       0.36576439431588315           0.49118082182999667          0.9910905902158827 1.0000   
         C         C         1.0       0.360467572448491   0.5108428118873177  0.9704794071856677 1.0000   
         C         C         1.0       0.3371491552751211  0.5095104842697653  0.8756294156534268 1.0000   
         C         C         1.0       0.3245837213543654  0.5012917287786083  0.8483295765051981 1.0000   
         C         C         1.0       0.3044483364626525  0.5132822370167954  0.8350921795991939 1.0000   
         C         C         1.0       0.2968659004018249  0.534876197151414   0.8480672445322434 1.0000   
         C         C         1.0       0.3075150026089088  0.542613069978619   0.8771073450938404 1.0000   
         C         C         1.0       0.32586862487862905           0.5294705702679335 0.8927249915430157 1.0000   
         H         H         1.0       0.4287351084513568  0.658506585797391   0.9050984897662121 1.0000   
         H         H         1.0       0.38648853587847476           0.6154177787920603 0.9743139740733883 1.0000   
         H         H         1.0       0.38582649673269925           0.6523948277635943 0.005546134849538734         1.0000   
         H         H         1.0       0.42321852913560015           0.6958011935615318 0.9398059713411308 1.0000   
         H         H         1.0       0.43036023246214977           0.5864449631127424 0.9686112667014198 1.0000   
         H         H         1.0       0.4741242291634474  0.5831061698606386  0.9880539028640349 1.0000   
         H         H         1.0       0.49853143090284846           0.6182629848624164 0.9031732600461145 1.0000   
         H         H         1.0       0.45611660111966834           0.6240725014493926 0.886738565356098  1.0000   
         H         H         1.0       0.35969849174520674           0.6138691365652164 0.91051672844498   1.0000   
         H         H         1.0       0.32896231226615225           0.5842298532765334 0.9213402555315224 1.0000   
         H         H         1.0       0.38151067409735384           0.5283641419424151 0.914581172710489  1.0000   
         H         H         1.0       0.4166308057771626  0.5581170679284717  0.9106915251134194 1.0000   
         H         H         1.0       0.2486370964785264  0.5390270656056259  0.9629932339182177 1.0000   
         H         H         1.0       0.2803165706176799  0.5212098796828369  0.9280970268703281 1.0000   
         H         H         1.0       0.3352338767160656  0.5665774164797517  0.9810747872323312 1.0000   
         H         H         1.0       0.30178555932930273           0.5828868008256145 0.012295317819031978         1.0000   
         H         H         1.0       0.33008543498970144           0.9978319955866178 0.9480204137162895 1.0000   
         H         H         1.0       0.34542974387740133           0.963698200496318  0.9768445373255711 1.0000   
         H         H         1.0       0.38266322815657866           0.4914157936017605 0.006284751711179213         1.0000   
         H         H         1.0       0.373013047379934   0.5263741071054979  0.9726477196981155 1.0000   
         H         H         1.0       0.3547258479138992  0.4995817714812245  0.8837297008268167 1.0000   
         H         H         1.0       0.3313574117835428  0.4849669006224143  0.8353534975171529 1.0000   
         H         H         1.0       0.27967799369671964           0.5426553278485333 0.8387104045744244 1.0000   
         H         H         1.0       0.30086798343523363           0.5586937736541906 0.8902410213380648 1.0000   
         C         C         1.0       0.15503785662010783           0.8698178714747563 0.785558576153146  1.0000   
         C         C         1.0       0.15485791522057685           0.8909182584633338 0.801385007154344  1.0000   
         C         C         1.0       0.1556243011604105  0.89250494172135    0.8340211512239625 1.0000   
         C         C         1.0       0.1564144076709363  0.8708051495811837  0.8518007677222645 1.0000   
         C         C         1.0       0.15877010960752747           0.8481248712653293 0.8347906493950457 1.0000   
         C         C         1.0       0.15784343812716595           0.8483308084661129 0.8009139740915648 1.0000   
         H         H         1.0       0.1512113216480772  0.9088535864365278  0.7908028182862646 1.0000   
         H         H         1.0       0.15348121104510806           0.9111232908100755 0.8440145753879373 1.0000   
         H         H         1.0       0.1629080456290007  0.8307806051012706  0.8467843800514229 1.0000   
         H         H         1.0       0.15941484441941026           0.8316026319119397 0.7881784323184737 1.0000   
         C         C         1.0       0.14789728579466235           0.8276076283560396 0.9027729335630963 1.0000   
         C         C         1.0       0.16436946468242253           0.8470476062042973 0.9066505961291361 1.0000   
         C         C         1.0       0.18615504725700321           0.8436677665608171 0.9247396808327089 1.0000   
         C         C         1.0       0.1917204243939361  0.8213713088392923  0.9366016250533769 1.0000   
         C         C         1.0       0.1751138906098677  0.8020848126236829  0.9333918275426191 1.0000   
         C         C         1.0       0.15311138096659493           0.8048350432569591 0.9157440098272185 1.0000   
         C         C         1.0       0.15578112905736327           0.8731566484823178 0.8899888330387382 1.0000   
         C         C         1.0       0.1263931728603404  0.8771082942981662  0.9013468830133059 1.0000   
         C         C         1.0       0.11931167438647675           0.877882397923821  0.933402270280127  1.0000   
         C         C         1.0       0.09514569564995813           0.8787671191095052 0.9425074631489718 1.0000   
         C         C         1.0       0.07555785630499384           0.8810207298057503 0.9204242806526287 1.0000   
         C         C         1.0       0.08242906233551718           0.8824233542337193 0.8887382430640761 1.0000   
         C         C         1.0       0.10707412204216683           0.8806993656927589 0.8798891372274575 1.0000   
         C         C         1.0       0.19623994722899687           0.8991172179186433 0.8871885672864683 1.0000   
         C         C         1.0       0.21221047004650753           0.9170157777178224 0.8948848537325604 1.0000   
         C         C         1.0       0.20730172417846185           0.9344208796808471 0.9186318988758025 1.0000   
         C         C         1.0       0.1850796594046812  0.9309745651125507  0.9340630960122893 1.0000   
         C         C         1.0       0.16824526804071904           0.9129418138018655 0.9256564818492183 1.0000   
         C         C         1.0       0.17381061324702435           0.8955017252997489 0.9021946425570896 1.0000   
         C         C         1.0       0.22612495734172097           0.9562203894867901 0.9286340082929677 1.0000   
         C         C         1.0       0.26692552220330057           0.9096132598459267 0.9987027497815517 1.0000   
         C         C         1.0       0.2733747497526014  0.9093401067207281  0.9665120630827821 1.0000   
         C         C         1.0       0.26039909507334635           0.9233252646538265 0.9432779819505469 1.0000   
         C         C         1.0       0.24191196418565908           0.9388797298803299 0.9538037276888239 1.0000   
         C         C         1.0       0.23466290827863903           0.9375626678754476 0.9861242080461149 1.0000   
         C         C         1.0       0.24888212034429244           0.9248957397252174 0.007200967929391868         1.0000   
         C         C         1.0       0.2129457283533754  0.9818529101818837  0.9424558580103999 1.0000   
         C         C         1.0       0.18901138560935707           0.9896261613942795 0.9297837750798891 1.0000   
         C         C         1.0       0.17594008950099263           0.5062277121982061 0.9382133334139404 1.0000   
         C         C         1.0       0.1856881300439579  0.5173479746440157  0.9650800910268279 1.0000   
         C         C         1.0       0.2102334119548477  0.5124148925781024  0.9749663998428073 1.0000   
         C         C         1.0       0.22315061485408189           0.9964772767740943 0.9669871565838861 1.0000   
         C         C         1.0       0.2671513389484195  0.9722318014145197  0.9055236502787456 1.0000   
         C         C         1.0       0.28143132812354654           0.982822046684385  0.8819533562874534 1.0000   
         C         C         1.0       0.26985644796555447           0.9877528106812898 0.8528930785129851 1.0000   
         C         C         1.0       0.24463880799384358           0.9820907054829058 0.8472174641090147 1.0000   
         C         C         1.0       0.230642353290713   0.9725380307675344  0.8709425408860597 1.0000   
         C         C         1.0       0.24191602843423818           0.967315926555488  0.9007004384281279 1.0000   
         H         H         1.0       0.1302178635328482  0.8305382414266539  0.8894050739224669 1.0000   
         H         H         1.0       0.20172249923292956           0.8568740141972883 0.9240615409725599 1.0000   
         H         H         1.0       0.20992536300581657           0.8180244463512982 0.9477780439392648 1.0000   
         H         H         1.0       0.13867583709899575           0.790662791582173  0.9155359717937784 1.0000   
         H         H         1.0       0.13379566573026921           0.8752628162089982 0.9519945545570023 1.0000   
         H         H         1.0       0.09116174351751022           0.8780024834800573 0.9671006512393843 1.0000   
         H         H         1.0       0.06917283392087818           0.8834192796723302 0.8704727667239323 1.0000   
         H         H         1.0       0.11142612148044237           0.8822006884854684 0.8543566338478336 1.0000   
         H         H         1.0       0.20106105741988634           0.8860070067863606 0.868457135307319  1.0000   
         H         H         1.0       0.229908230010638   0.9181594089598987  0.880988654143516  1.0000   
         H         H         1.0       0.17967933901980668           0.944029880856734  0.9506164068872065 1.0000   
         H         H         1.0       0.15112855204837192           0.9134534543819198 0.9381641773289161 1.0000   
         H         H         1.0       0.28881950994734923           0.896037950368872  0.9600325995269205 1.0000   
         H         H         1.0       0.2642868607700395  0.921915770625323   0.9178336647617132 1.0000   
         H         H         1.0       0.21688145237151904           0.9455644090030163 0.9927576110713207 1.0000   
         H         H         1.0       0.2445686336033681  0.9243222528965338  0.03160016785951514          1.0000   
         H         H         1.0       0.1802154696224192  0.9794752481274638  0.9099000004149944 1.0000   
         H         H         1.0       0.1575678927711302  0.5127956556538142  0.928692477503309  1.0000   
         H         H         1.0       0.21897019741451912           0.520717106263429  0.9957543640259601 1.0000   
         H         H         1.0       0.24175425507129514           0.9910255950674132 0.9779598198053281 1.0000   
         H         H         1.0       0.2756427624153554  0.9681248117728107  0.9291331528099939 1.0000   
         H         H         1.0       0.3020789411289235  0.9828217377225481  0.8837477157522048 1.0000   
         H         H         1.0       0.2349762377502333  0.9870284276740344  0.8246895587307855 1.0000   
         H         H         1.0       0.2100694641375945  0.969852690472862   0.867131556734992  1.0000   
         C         C         1.0       0.48298598904396733           0.8702733085249685 0.11756070551865734          1.0000   
         C         C         1.0       0.47131437391292036           0.8639901952647322 0.1454974960166321 1.0000   
         C         C         1.0       0.44545214954015017           0.8633658765787975 0.14549885758086048          1.0000   
         C         C         1.0       0.4307903004194939  0.8698844119131186  0.11826177845698976          1.0000   
         C         C         1.0       0.44333041480972596           0.8733185981361337 0.0903133581347758 1.0000   
         C         C         1.0       0.46880082539566464           0.8726753094367683 0.08919249846038127          1.0000   
         H         H         1.0       0.48287453985339923           0.8611247163324194 0.16732595033527511          1.0000   
         H         H         1.0       0.4364856388745529  0.8575802562128524  0.16644673378877956          1.0000   
         H         H         1.0       0.43288549670717746           0.877652465290168  0.06851372506179866          1.0000   
         H         H         1.0       0.4773870220828242  0.8751934669067396  0.06575185230902873          1.0000   
         C         C         1.0       0.4098812746339213  0.9199435880760017  0.10642064663647494          1.0000   
         C         C         1.0       0.39344488270195055           0.8994406309601186 0.10714820993884223          1.0000   
         C         C         1.0       0.36915791160946554           0.9016581987080169 0.09510873495274594          1.0000   
         C         C         1.0       0.362816997720946   0.9218023135830642  0.0776648941685913 1.0000   
         C         C         1.0       0.3799745316865961  0.9411618559841752  0.07734281524115373          1.0000   
         C         C         1.0       0.4025020951080594  0.9414965104016446  0.09327912971222338          1.0000   
         C         C         1.0       0.40180018190856903           0.8745302744167853 0.12363441645823037          1.0000   
         C         C         1.0       0.3944995530214779  0.8815237687614278  0.1603041837207617 1.0000   
         C         C         1.0       0.37031255380289624           0.8764993205525563 0.16898836753692614          1.0000   
         C         C         1.0       0.3628066606289162  0.8819593867130157  0.20003888393609054          1.0000   
         C         C         1.0       0.37858505526540753           0.8925437290039334 0.2221612315888883 1.0000   
         C         C         1.0       0.401873639902728   0.8988732484515822  0.2134678865541254 1.0000   
         C         C         1.0       0.40896059099711934           0.8949151112783021 0.18181191966484825          1.0000   
         C         C         1.0       0.3883140639361067  0.846954132358364   0.07540399161686617          1.0000   
         C         C         1.0       0.374104438021816   0.8281188406264419  0.06259973212538451          1.0000   
         C         C         1.0       0.3654473227129706  0.8110222674917331  0.08197617105563697          1.0000   
         C         C         1.0       0.36990848025659584           0.8119999972808221 0.11349057211798018          1.0000   
         C         C         1.0       0.38416227494514826           0.8298453020612199 0.1273840216582776 1.0000   
         C         C         1.0       0.3903369754805442  0.8497175257317269  0.10773997880535874          1.0000   
         C         C         1.0       0.3444854446564627  0.7924356431434306  0.06723832530578938          1.0000   
         C         C         1.0       0.2880082763576223  0.8497367260280669  0.0345068864279039 1.0000   
         C         C         1.0       0.3011228368392217  0.8360836861096165  0.012156935272755602         1.0000   
         C         C         1.0       0.3186538342689134  0.8196454136843475  0.022499788759865667         1.0000   
         C         C         1.0       0.32360163613642673           0.8131910553726389 0.05459492919723082          1.0000   
         C         C         1.0       0.3086405246951705  0.8261619706811008  0.0757727236478339 1.0000   
         C         C         1.0       0.2913692328090577  0.8445560493239922  0.0667148373114291 1.0000   
         C         C         1.0       0.33113022794134583           0.7733005931805021 0.09043332742701461          1.0000   
         C         C         1.0       0.34391522139980907           0.7588520055387517 0.11198297516389272          1.0000   
         C         C         1.0       0.33070990727026084           0.7435414856005645 0.13044392106662347          1.0000   
         C         C         1.0       0.3043730068692516  0.741775243735476   0.12804874267532051          1.0000   
         C         C         1.0       0.29211964401470003           0.7539533919072138 0.10311956637844534          1.0000   
         C         C         1.0       0.30483467480941695           0.7694838190028854 0.08458500241607993          1.0000   
         C         C         1.0       0.34071849271381527           0.7622112636466897 0.019403502819692994         1.0000   
         C         C         1.0       0.3488569195013477  0.7442185769860099  0.9991405582428878 1.0000   
         C         C         1.0       0.3743075395433088  0.7391953443367841  0.9980070619378795 1.0000   
         C         C         1.0       0.39041964549063873           0.7513494466624933 0.018344026233415113         1.0000   
         C         C         1.0       0.3818455516366102  0.7676672911111388  0.0420075926587869 1.0000   
         C         C         1.0       0.35624020553934277           0.7744253665155548 0.04098526250111994          1.0000   
         H         H         1.0       0.4283474180147841  0.9188448998119422  0.12140488482796102          1.0000   
         H         H         1.0       0.35635467688476985           0.8869705119653719 0.09831788422568234          1.0000   
         H         H         1.0       0.3453586452586927  0.9245040555563784  0.0624733069626847 1.0000   
         H         H         1.0       0.41234437799847923           0.9578755196838079 0.09666119105921989          1.0000   
         H         H         1.0       0.3564059249478337  0.8670791596068853  0.15325566155148068          1.0000   
         H         H         1.0       0.3441179981147938  0.8762944761648856  0.20667666321674033          1.0000   
         H         H         1.0       0.41533781311949935           0.9057038980085856 0.23009756106537796          1.0000   
         H         H         1.0       0.42736911746201645           0.8999355300041946 0.17569937841742705          1.0000   
         H         H         1.0       0.3969933363347639  0.8592611997928524  0.05880584897191311          1.0000   
         H         H         1.0       0.37144492440473903           0.8257887906941876 0.03769368989552692          1.0000   
         H         H         1.0       0.3632598463739745  0.7998913021558011  0.12883103979620658          1.0000   
         H         H         1.0       0.38657147589852686           0.8308449181366638 0.1525487729370908 1.0000   
         H         H         1.0       0.29891500841386687           0.8396580375450413 0.9871932925905365 1.0000   
         H         H         1.0       0.3306374223970285  0.8118974529707681  0.0037610094724678995        1.0000   
         H         H         1.0       0.3108494823940229  0.8231618193650818  0.10149398331475776          1.0000   
         H         H         1.0       0.2806115668387287  0.8555429058021721  0.08374972081014002          1.0000   
         H         H         1.0       0.3632510292262686  0.7604342652279281  0.11755579438181885          1.0000   
         H         H         1.0       0.34352161512885515           0.7343401001517199 0.14684673484160596          1.0000   
         H         H         1.0       0.2710931560653896  0.752501044859075   0.1016710608640081 1.0000   
         H         H         1.0       0.2942152181773914  0.77654109377479    0.06505058950987262          1.0000   
         H         H         1.0       0.32087899971367834           0.7657384021500415 0.019001248863497557         1.0000   
         H         H         1.0       0.33440418445394127           0.7344607730630628 0.9855899681368158 1.0000   
         H         H         1.0       0.41104633046336125           0.7469464310721432 0.01792099015908529          1.0000   
         H         H         1.0       0.3938100365769331  0.777324895909637   0.05982330610070441          1.0000   
         C         C         1.0       0.03447382438803133           0.628367358998586  0.39373813005626807          1.0000   
         C         C         1.0       0.04677047996383229           0.6061619687642248 0.3889359240363767 1.0000   
         C         C         1.0       0.07175023113823749           0.6053102492325705 0.3869036373276454 1.0000   
         C         C         1.0       0.08737724928741791           0.6259229316601399 0.3872692474226387 1.0000   
         C         C         1.0       0.07389168715645933           0.6478913548248795 0.3949697783307348 1.0000   
         C         C         1.0       0.04861441931600628           0.6491271831694474 0.3963122640525263 1.0000   
         H         H         1.0       0.036107924302500434          0.5894599169703245 0.3883992669066875 1.0000   
         H         H         1.0       0.07958922844321406           0.5882321114292034 0.37883611096339315          1.0000   
         H         H         1.0       0.0828816285284493  0.6651583429742665  0.39605003378062253          1.0000   
         H         H         1.0       0.03934186466088638           0.6666224609142902 0.3989209187087113 1.0000   
         C         C         1.0       0.13253698483324972           0.6701809352865239 0.3827355593324905 1.0000   
         C         C         1.0       0.12986273109003382           0.6474353882290973 0.39585250173588743          1.0000   
         C         C         1.0       0.1402279586404766  0.6458169904217856  0.42653085104146765          1.0000   
         C         C         1.0       0.14969439212297703           0.6661228396709054 0.4445242852279843 1.0000   
         C         C         1.0       0.1496072993746803  0.6887778361501833  0.4311670654940146 1.0000   
         C         C         1.0       0.14029637518565896           0.691227913516497  0.3990053744777022 1.0000   
         C         C         1.0       0.11645413500491762           0.6238723782630937 0.38027172095943357          1.0000   
         C         C         1.0       0.11745028375270167           0.6221472796608496 0.3410775288179997 1.0000   
         C         C         1.0       0.13763779358263564           0.6304865409038949 0.3256603751655001 1.0000   
         C         C         1.0       0.14104754645759096           0.6280463934576591 0.29396721949837096          1.0000   
         C         C         1.0       0.12288098058710452           0.6156544415059718 0.27489397093684975          1.0000   
         C         C         1.0       0.10231182645842796           0.6059191048440922 0.2894567554816819 1.0000   
         C         C         1.0       0.10060335848897571           0.607585040794697  0.3218165358026569 1.0000   
         C         C         1.0       0.12243184478465857           0.5862296288175326 0.41699763351763663          1.0000   
         C         C         1.0       0.13724425601898996           0.5705370536354104 0.4348832932305326 1.0000   
         C         C         1.0       0.1621912904858034  0.5656069324605825  0.426513666085587  1.0000   
         C         C         1.0       0.17024661314524747           0.5763118388710772 0.39823994113417205          1.0000   
         C         C         1.0       0.15406847216116457           0.5906762338232522 0.38070442906653174          1.0000   
         C         C         1.0       0.13115843273579894           0.598539817082715  0.39106654292294146          1.0000   
         C         C         1.0       0.1817545729734584  0.5525473703369673  0.4494279220632458 1.0000   
         C         C         1.0       0.20102825514814862           0.6207433173436144 0.5005582588049357 1.0000   
         C         C         1.0       0.18433524996585182           0.6049236471840393 0.5137017908173015 1.0000   
         C         C         1.0       0.17752240290525764           0.5842543822188397 0.49634361508599667          1.0000   
         C         C         1.0       0.19076553064203844           0.5761668566020453 0.4696057771689868 1.0000   
         C         C         1.0       0.20863412424971478           0.5923365796237228 0.4592718204177499 1.0000   
         C         C         1.0       0.2135478091931368  0.614405325554171   0.4743944658020595 1.0000   
         C         C         1.0       0.2023099888445674  0.5376774110186611  0.4292680850379192 1.0000   
         C         C         1.0       0.1965355154042941  0.5229879604658728  0.4024819520451687 1.0000   
         C         C         1.0       0.21521442884859768           0.5129853680859232 0.38382195526366414          1.0000   
         C         C         1.0       0.23985323131331612           0.5171008117910227 0.3927818769625515 1.0000   
         C         C         1.0       0.24545405706497828           0.5290151871058268 0.42058258370722046          1.0000   
         C         C         1.0       0.22738860846198397           0.539132540443665  0.4391012366888883 1.0000   
         C         C         1.0       0.18153151985878796           0.524440387315071  0.5006919311046878 1.0000   
         C         C         1.0       0.17262396018872309           0.5055538062117412 0.5177468272022044 1.0000   
         C         C         1.0       0.15249098555123328           0.4927268745736234 0.506155130481815  1.0000   
         C         C         1.0       0.1429936095410346  0.4969579675959704  0.47649897082008935          1.0000   
         C         C         1.0       0.15136676318725878           0.515761170269785  0.45815768909390775          1.0000   
         C         C         1.0       0.1711847464847979  0.5301972244087239  0.4712912909627192 1.0000   
         H         H         1.0       0.12467374047277235           0.6736030281086665 0.359332045941239  1.0000   
         H         H         1.0       0.14136330323875843           0.6275474993550639 0.4368666386158472 1.0000   
         H         H         1.0       0.15953776180424253           0.6652369563767914 0.4680867044537489 1.0000   
         H         H         1.0       0.1372046269935771  0.7079445865971988  0.3883465452776576 1.0000   
         H         H         1.0       0.15313873358424437           0.636903721790922  0.34035281155817393          1.0000   
         H         H         1.0       0.15741098175858692           0.6371630365173944 0.2820269623579934 1.0000   
         H         H         1.0       0.08804698969648952           0.5963919359921676 0.2758066555768945 1.0000   
         H         H         1.0       0.08548897281293041           0.596270734665676  0.3286235765814614 1.0000   
         H         H         1.0       0.10381364153445852           0.5910208508556641 0.42867043834060065          1.0000   
         H         H         1.0       0.13276802716674496           0.5653533337398637 0.4587091507461676 1.0000   
         H         H         1.0       0.19016999865362366           0.5737342289721048 0.3902817124563567 1.0000   
         H         H         1.0       0.16242585191597184           0.6001902548766679 0.36107176716808714          1.0000   
         H         H         1.0       0.17657989308312388           0.6092394453259251 0.536754458730736  1.0000   
         H         H         1.0       0.16445009266468139           0.5712826605676494 0.505420779220329  1.0000   
         H         H         1.0       0.21855534875168642           0.588024930070865  0.4384537382709419 1.0000   
         H         H         1.0       0.2303540568122235  0.6242524208740049  0.46551206287164343          1.0000   
         H         H         1.0       0.1782806724793842  0.5157713543296237  0.39788809013769955          1.0000   
         H         H         1.0       0.21128067821070173           0.5008240409303526 0.36320664481272286          1.0000   
         H         H         1.0       0.2642901242911441  0.5316278360995028  0.4280917385254573 1.0000   
         H         H         1.0       0.23206288903238453           0.5457174084371861 0.46228864244695644          1.0000   
         H         H         1.0       0.19743833948455672           0.5340700496812905 0.5091556183409782 1.0000   
         H         H         1.0       0.18268213452823562           0.4983859068456543 0.5388785031538685 1.0000   
         H         H         1.0       0.12849878226216913           0.9783549937116852 0.45104068734581415          1.0000   
         H         H         1.0       0.14521840396828917           0.5162586773890087 0.43377356466450606          1.0000   
         C         C         1.0       0.3731531247508243  0.6431245595164999  0.726469307977644  1.0000   
         C         C         1.0       0.38383300844999363           0.6611677383090091 0.7102739776463004 1.0000   
         C         C         1.0       0.38697192273489306           0.6588177274550584 0.6785355754633595 1.0000   
         C         C         1.0       0.3762073383328993  0.6396138485271302  0.6596971264709676 1.0000   
         C         C         1.0       0.3610184688303238  0.6227384204669062  0.676457486141596  1.0000   
         C         C         1.0       0.3598228240299994  0.6248827253832475  0.7098184465273294 1.0000   
         H         H         1.0       0.39429507308966927           0.6760020282042586 0.721113847240721  1.0000   
         H         H         1.0       0.39786555434159265           0.6730373518565198 0.6671668106111837 1.0000   
         H         H         1.0       0.34925737655954403           0.6106328124131593 0.6606297524474465 1.0000   
         H         H         1.0       0.34830665126351856           0.6122358453828938 0.7223622191450024 1.0000   
         C         C         1.0       0.38447097782404915           0.5916082436191805 0.6169329710005594 1.0000   
         C         C         1.0       0.3764232588909407  0.6136725259394438  0.6033209697783545 1.0000   
         C         C         1.0       0.3679872183228476  0.6126355716961648  0.5709255815896356 1.0000   
         C         C         1.0       0.36573743122074104           0.5906281844370632 0.554769587208581  1.0000   
         C         C         1.0       0.3716684239948252  0.569322908899997   0.5696187727468593 1.0000   
         C         C         1.0       0.3810705979362261  0.5699377893832778  0.600604021360671  1.0000   
         C         C         1.0       0.3794719069066512  0.6387806739366552  0.6218695505233024 1.0000   
         C         C         1.0       0.40729149501866546           0.6445835829092027 0.6091415767436698 1.0000   
         C         C         1.0       0.4106674198345803  0.654806072075942   0.5799686249161153 1.0000   
         C         C         1.0       0.43421828504434895           0.6596598888967018 0.5685972880648746 1.0000   
         C         C         1.0       0.4549438371268004  0.6511746872409669  0.5867109544472063 1.0000   
         C         C         1.0       0.4518418164193912  0.6422918003292926  0.616729793943831  1.0000   
         C         C         1.0       0.4285846642220606  0.6374535737869016  0.6281523560408686 1.0000   
         C         C         1.0       0.3316167026394291  0.6508956237025231  0.6050057760870192 1.0000   
         C         C         1.0       0.3131831750394556  0.6686992159464759  0.5994668878337652 1.0000   
         C         C         1.0       0.31972144910632033           0.6927951322598133 0.597251281686187  1.0000   
         C         C         1.0       0.3432567374865998  0.6989511366675232  0.6058563833476688 1.0000   
         C         C         1.0       0.3617874971875655  0.6820749415212807  0.6130391667088938 1.0000   
         C         C         1.0       0.3564679521984595  0.6577001163135601  0.6126518698644607 1.0000   
         C         C         1.0       0.300335807985993   0.7129225575202013  0.5819951330321256 1.0000   
         C         C         1.0       0.2405416865264731  0.678968293448968   0.5198080266718409 1.0000   
         C         C         1.0       0.23555109959110082           0.6983333446550788 0.5421560239945962 1.0000   
         C         C         1.0       0.25553116670427983           0.7101894210424159 0.5571440924132477 1.0000   
         C         C         1.0       0.27979435946712944           0.7023459100083628 0.5565260954576    1.0000   
         C         C         1.0       0.2849107154836508  0.6819360824851398  0.5350216569543945 1.0000   
         C         C         1.0       0.26554926377362104           0.6709292753392109 0.5167212173822521 1.0000   
         C         C         1.0       0.31301898872479245           0.7315462023167949 0.5557836002318686 1.0000   
         C         C         1.0       0.33238657114311587           0.7223367929756552 0.5377711296867168 1.0000   
         C         C         1.0       0.34617567547729106           0.7373001706866398 0.5194088683730012 1.0000   
         C         C         1.0       0.3376338933729032  0.7612729389862896  0.5130956687625747 1.0000   
         C         C         1.0       0.3155664504281997  0.7694736847779958  0.5266738327549776 1.0000   
         C         C         1.0       0.3042166979481077  0.7545282427499154  0.5474467030745651 1.0000   
         C         C         1.0       0.29624136316463257           0.749483942936412  0.624216862658559  1.0000   
         C         C         1.0       0.2834861367167537  0.761762071729343   0.6483401129998988 1.0000   
         C         C         1.0       0.2642253573916303  0.7508944542654556  0.6638112980049232 1.0000   
         C         C         1.0       0.2568848910142752  0.7272444942162116  0.6541174127317176 1.0000   
         C         C         1.0       0.26962441129160725           0.7156347749529255 0.6283080323205527 1.0000   
         C         C         1.0       0.2883246278967285  0.7274731773072658  0.6131419774801161 1.0000   
         H         H         1.0       0.3933094451385833  0.5926955170032345  0.6400777491844235 1.0000   
         H         H         1.0       0.36236317415654906           0.628713334753162  0.5572744957081476 1.0000   
         H         H         1.0       0.3586006699904448  0.5924928000638962  0.5290934516165735 1.0000   
         H         H         1.0       0.387246552112688   0.5530663987864112  0.6119859191198254 1.0000   
         H         H         1.0       0.39362313077732386           0.6598345274848294 0.5671748424030482 1.0000   
         H         H         1.0       0.4362868077727174  0.6674310168305058  0.5448163720910706 1.0000   
         H         H         1.0       0.46645942863253304           0.6341484514395738 0.6315163902428043 1.0000   
         H         H         1.0       0.42819025697341623           0.6305993294526321 0.6526165967525376 1.0000   
         H         H         1.0       0.32636974284287024           0.6321725024279266 0.6074820391145025 1.0000   
         H         H         1.0       0.2934546671721078  0.663893969525273   0.5943837059651446 1.0000   
         H         H         1.0       0.3503054261655472  0.718529138684769   0.6061101870367759 1.0000   
         H         H         1.0       0.3815870566724064  0.6888130917380586  0.6175842060159153 1.0000   
         H         H         1.0       0.21669338179307765           0.7033160195925274 0.5484189654967135 1.0000   
         H         H         1.0       0.2509916209281654  0.7253397191817875  0.5726547820121091 1.0000   
         H         H         1.0       0.3032697609530877  0.67442341978751    0.5338865252288297 1.0000   
         H         H         1.0       0.271909634455908   0.6568570228499903  0.4996676977927764 1.0000   
         H         H         1.0       0.3383052768145114  0.7029297682818254  0.5393118732991852 1.0000   
         H         H         1.0       0.3595775977520195  0.7295141607757281  0.5037740143245601 1.0000   
         H         H         1.0       0.30992408495509427           0.7890184376273581 0.5232940897410009 1.0000   
         H         H         1.0       0.2871965840004082  0.7585910847187558  0.5597177618773554 1.0000   
         H         H         1.0       0.3145636223907482  0.7558293567825183  0.6154512184661227 1.0000   
         H         H         1.0       0.2884277665740878  0.7806801128714266  0.6520519961084464 1.0000   
         H         H         1.0       0.23962856307534422           0.7183456523024273 0.6632988867949496 1.0000   
         H         H         1.0       0.26192536599572647           0.6976314472740652 0.6219993590076627 1.0000   
         C         C         1.0       0.11673761575838103           0.8778662707166265 0.7030099341810845 1.0000   
         C         C         1.0       0.10060191409892523           0.8598238526217671 0.6902070299643313 1.0000   
         C         C         1.0       0.09609686124584109           0.8576397767697806 0.657297733490931  1.0000   
         C         C         1.0       0.10623567570758635           0.8758747679586112 0.6371231849783415 1.0000   
         C         C         1.0       0.12424234336622417           0.8919773045976214 0.6498350603874656 1.0000   
         C         C         1.0       0.12865434741737777           0.8928279101454956 0.6821055468672416 1.0000   
         H         H         1.0       0.09394803324269352           0.8437624880571892 0.7019674413780245 1.0000   
         H         H         1.0       0.08230424199944987           0.8445608188051777 0.64795065404819   1.0000   
         H         H         1.0       0.1339633673975608  0.9053904419353507  0.6356959811110137 1.0000   
         H         H         1.0       0.14273490669963643           0.9051042600850236 0.6914855639866715 1.0000   
         C         C         1.0       0.0966649062168563  0.9201553728855908  0.5904132991622899 1.0000   
         C         C         1.0       0.10090483181566226           0.8970286442566401 0.5780977814787871 1.0000   
         C         C         1.0       0.10325288439131407           0.8953644064771553 0.5452662258105344 1.0000   
         C         C         1.0       0.10281373190699963           0.9147028791568287 0.5263652699561312 1.0000   
         C         C         1.0       0.10179705706642918           0.938024578451079  0.5396802725317039 1.0000   
         C         C         1.0       0.09836230594878875           0.9408718562144273 0.5720377642073606 1.0000   
         C         C         1.0       0.09875260752387569           0.8730060810294838 0.6005131220094204 1.0000   
         C         C         1.0       0.06844814307498735           0.8692914023624952 0.5949697547631199 1.0000   
         C         C         1.0       0.059658704129353146          0.8561243104627535 0.5681610506979138 1.0000   
         C         C         1.0       0.03515690548006902           0.8525043220923157 0.562987198259216  1.0000   
         C         C         1.0       0.01726680308180341           0.865267219944937  0.5836690556709232 1.0000   
         C         C         1.0       0.026285039760589084          0.8781238129589576 0.6092197930935126 1.0000   
         C         C         1.0       0.0516493713383684  0.8799624171150114  0.6151208592377916 1.0000   
         C         C         1.0       0.1425807424688857  0.8603865894757454  0.5864141687564584 1.0000   
         C         C         1.0       0.16179016143304947           0.8435678776399848 0.5812452376647407 1.0000   
         C         C         1.0       0.15629930762318117           0.8188190122176519 0.574883144058906  1.0000   
         C         C         1.0       0.1315841020155271  0.8112960061802482  0.5775077021277004 1.0000   
         C         C         1.0       0.11372686176971059           0.829337722129206  0.584433193408704  1.0000   
         C         C         1.0       0.1183277484869491  0.8535180422797614  0.5905373099159084 1.0000   
         C         C         1.0       0.1777355932258014  0.8000171280215642  0.5640209604135301 1.0000   
         C         C         1.0       0.23877430405694075           0.8328259543694921 0.5105781863593658 1.0000   
         C         C         1.0       0.24186890622225757           0.8104637901090852 0.5249642136175953 1.0000   
         C         C         1.0       0.22209207387199062           0.8003947555637829 0.5416026761799995 1.0000   
         C         C         1.0       0.19910418002722535           0.8117758929913711 0.5413673216408957 1.0000   
         C         C         1.0       0.19505625149426464           0.8312697349982261 0.5212919053597095 1.0000   
         C         C         1.0       0.21508330205022397           0.8433468448283498 0.5090739776520607 1.0000   
         C         C         1.0       0.16955018139655295           0.778787366503794  0.5386920203546822 1.0000   
         C         C         1.0       0.17909164523520704           0.7540039914538188 0.5417305915127673 1.0000   
         C         C         1.0       0.16849880219155594           0.7362369269072806 0.5241429831696064 1.0000   
         C         C         1.0       0.1533661699031285  0.7414214886106862  0.49727139493111083          1.0000   
         C         C         1.0       0.1458987402439999  0.7648254989861967  0.49221298164011157          1.0000   
         C         C         1.0       0.1533149647881656  0.7830058386905452  0.5128890294387521 1.0000   
         C         C         1.0       0.17668147416407312           0.7737521960325019 0.6149912910887274 1.0000   
         C         C         1.0       0.18797469648181403           0.7659473261877785 0.6434979751447067 1.0000   
         C         C         1.0       0.20807519696088564           0.7777119094571835 0.6568024083626527 1.0000   
         C         C         1.0       0.21938595264746058           0.7973164166133967 0.6429022795867531 1.0000   
         C         C         1.0       0.20939492018687922           0.8038793646798486 0.6138030765035019 1.0000   
         C         C         1.0       0.1879050594253089  0.7928744108170557  0.5986640526450594 1.0000   
         H         H         1.0       0.09103850086023954           0.9220254241641976 0.6136598482051193 1.0000   
         H         H         1.0       0.11100352236279039           0.8782487922678386 0.5355943247690638 1.0000   
         H         H         1.0       0.1078138989633025  0.9109008551373323  0.5017691599991263 1.0000   
         H         H         1.0       0.09703570148551703           0.9583477620565354 0.5854549355972462 1.0000   
         H         H         1.0       0.07296154627682477           0.8466982241830485 0.5537093803057136 1.0000   
         H         H         1.0       0.029231471355758196          0.8416065243400986 0.5430131237884404 1.0000   
         H         H         1.0       0.013046178283449245          0.8883438993728947 0.6250518340108483 1.0000   
         H         H         1.0       0.058596211005423685          0.8897257314939947 0.6358355466317764 1.0000   
         H         H         1.0       0.1470691831778377  0.8793749461989638  0.5898969682050703 1.0000   
         H         H         1.0       0.17907382461240925           0.8534910887190917 0.5793294051483117 1.0000   
         H         H         1.0       0.126857532590624   0.7918821401542113  0.5753206798799074 1.0000   
         H         H         1.0       0.09569998309103862           0.8220606917264714 0.5893925614598932 1.0000   
         H         H         1.0       0.26007413243423083           0.8012339732349756 0.5258858945961403 1.0000   
         H         H         1.0       0.2235628661724044  0.7835740652880728  0.556228848946847  1.0000   
         H         H         1.0       0.17613457619820244           0.8398918044298793 0.5173309807302517 1.0000   
         H         H         1.0       0.21295340913192173           0.8596685812357825 0.49230595765276103          1.0000   
         H         H         1.0       0.19279164863832368           0.7510644313187381 0.560328569952734  1.0000   
         H         H         1.0       0.1749932986356443  0.7173381774548385  0.5267930725996987 1.0000   
         H         H         1.0       0.13313009545246518           0.7699409069443914 0.4722516555590803 1.0000   
         H         H         1.0       0.147282988194953   0.8009363785615966  0.5054241444409748 1.0000   
         H         H         1.0       0.16063811818077664           0.7637185958998743 0.6045219546615841 1.0000   
         H         H         1.0       0.18190556719638584           0.7483453021464251 0.6519849697695832 1.0000   
         H         H         1.0       0.23699247031140477           0.8085134589786205 0.6509722059884543 1.0000   
         H         H         1.0       0.2195115237964293  0.8173146619473846  0.6035514347579779 1.0000   
         C         C         1.0       0.47994846440883987           0.8708785243723843 0.4307395607114789 1.0000   
         C         C         1.0       0.4676441332233355  0.8873561303920312  0.41068720249871976          1.0000   
         C         C         1.0       0.44210283230280556           0.8857424687295791 0.4048373071712268 1.0000   
         C         C         1.0       0.42756489864323316           0.8679619145561984 0.41959707755067693          1.0000   
         C         C         1.0       0.4401128207028235  0.8533257259556635  0.4415720850075479 1.0000   
         C         C         1.0       0.46612455610256304           0.8531554591491224 0.4446127506686214 1.0000   
         H         H         1.0       0.4786538975958053  0.902190848856701   0.4029814927460469 1.0000   
         H         H         1.0       0.43072132483500336           0.8988077576207966 0.38914090506941995          1.0000   
         H         H         1.0       0.43203144476443134           0.8386992076566119 0.45381109414703336          1.0000   
         H         H         1.0       0.47231682819601584           0.8413298765581166 0.46280526246993126          1.0000   
         C         C         1.0       0.3921948776682659  0.8197211836106615  0.4180482199420881 1.0000   
         C         C         1.0       0.3823492418707154  0.8436898582176731  0.4228849815323505 1.0000   
         C         C         1.0       0.3587015488092806  0.8448735080887259  0.43733530627926276          1.0000   
         C         C         1.0       0.34816663247294466           0.8241526587645515 0.4498821150243196 1.0000   
         C         C         1.0       0.35840697583648734           0.8016900510728324 0.44357201208441693          1.0000   
         C         C         1.0       0.3807080756883505  0.7988716906857174  0.4295343172287157 1.0000   
         C         C         1.0       0.3977146097847705  0.8660960213511677  0.4110613618259154 1.0000   
         C         C         1.0       0.3910731047031149  0.8648480904347263  0.37413935468046206          1.0000   
         C         C         1.0       0.36743434205875974           0.8685033756438975 0.3624738742977865 1.0000   
         C         C         1.0       0.3621246078424931  0.8702399447867739  0.32996703900994373          1.0000   
         C         C         1.0       0.37931407291737224           0.8641174863051853 0.30779006078719273          1.0000   
         C         C         1.0       0.4028429650904865  0.8578487508317557  0.3194308065059496 1.0000   
         C         C         1.0       0.4095537681430672  0.8587239139309616  0.35192785126859943          1.0000   
         C         C         1.0       0.3898655744985255  0.8908802500259573  0.46494855224242293          1.0000   
         C         C         1.0       0.37869888916760347           0.9092039990329791 0.48110218273875677          1.0000   
         C         C         1.0       0.36426766905335284           0.927451441770984  0.4663692481452457 1.0000   
         C         C         1.0       0.3631731484585834  0.9266782648212917  0.43349449440229587          1.0000   
         C         C         1.0       0.37580538747525405           0.9087220815519387 0.4169662703030918 1.0000   
         C         C         1.0       0.388521617721276   0.8900012253520475  0.43095618503536776          1.0000   
         C         C         1.0       0.34212697127590647           0.9423139880241923 0.48565808873640404          1.0000   
         C         C         1.0       0.2960085499292019  0.8790046769182096  0.5076531677996972 1.0000   
         C         C         1.0       0.3124165719596126  0.8878674787702215  0.5301585707362129 1.0000   
         C         C         1.0       0.32715440951050656           0.9073313556486601 0.5238540583868476 1.0000   
         C         C         1.0       0.32588904942521707           0.9189841416525016 0.4953882998402465 1.0000   
         C         C         1.0       0.311790001567458   0.9076407823305213  0.4712658641050723 1.0000   
         C         C         1.0       0.2968165452919179  0.887905769210308   0.4771139540888132 1.0000   
         C         C         1.0       0.3289075794025806  0.9641357497158201  0.46840783216106685          1.0000   
         C         C         1.0       0.34178936135837495           0.9823283988122121 0.45189270136248655          1.0000   
         C         C         1.0       0.32928633588409456           0.0007945220261209585        0.4337752457887794 1.0000   
         C         C         1.0       0.30374768493839177           0.0001643549760870222        0.4317432262656639 1.0000   
         C         C         1.0       0.2897523012076797  0.9836711747934187  0.44935280151932383          1.0000   
         C         C         1.0       0.302364517968337   0.9666556909353223  0.46845991304674617          1.0000   
         C         C         1.0       0.3374273773144576  0.9659832655416611  0.5390528182345138 1.0000   
         C         C         1.0       0.34365770742619417           0.9833699578328966 0.5611784155598616 1.0000   
         C         C         1.0       0.3681454915354331  0.991301386474083   0.5625899300175238 1.0000   
         C         C         1.0       0.38559889274094045           0.9818394715646201 0.5419834677236539 1.0000   
         C         C         1.0       0.37773313830138217           0.9660911659223027 0.5184346824112853 1.0000   
         C         C         1.0       0.35364711963045264           0.9565512578737594 0.5159768265147786 1.0000   
         H         H         1.0       0.40852213234609225           0.8167126143696753 0.40457826142036873          1.0000   
         H         H         1.0       0.3496023725761546  0.8638872289030166  0.4431799639143282 1.0000   
         H         H         1.0       0.33108884197749233           0.826522036979733  0.4634734001807664 1.0000   
         H         H         1.0       0.3911321328332763  0.7820769829110235  0.42802411632638854          1.0000   
         H         H         1.0       0.3516514338321883  0.8734348336000047  0.3768339746710575 1.0000   
         H         H         1.0       0.34349452273788444           0.8744862121559004 0.3219873970219649 1.0000   
         H         H         1.0       0.41884223602961745           0.855246696846247  0.30344308383208   1.0000   
         H         H         1.0       0.42950319861012887           0.8543710132483449 0.358936472406973  1.0000   
         H         H         1.0       0.39781514567641807           0.8765813268342891 0.47930765818928794          1.0000   
         H         H         1.0       0.378176608482017   0.9090534076722927  0.509196068158975  1.0000   
         H         H         1.0       0.3491310085589854  0.9382942623494979  0.4224753236381864 1.0000   
         H         H         1.0       0.37367219834923954           0.9110445926025753 0.3914018325114825 1.0000   
         H         H         1.0       0.3120590448133705  0.8803640471535995  0.5538767465657802 1.0000   
         H         H         1.0       0.34145467313963    0.9138463828548076  0.5414009617496964 1.0000   
         H         H         1.0       0.3117546298397787  0.9159812728508332  0.4478686013899161 1.0000   
         H         H         1.0       0.28373938533855614           0.8824345804106468 0.4568543823092673 1.0000   
         H         H         1.0       0.36194460008880563           0.9836668496353334 0.4554264312883945 1.0000   
         H         H         1.0       0.33194763405728966           0.510992242935523  0.39501529661127044          1.0000   
         H         H         1.0       0.27089657960120483           0.9824809020802331 0.44735481040935426          1.0000   
         H         H         1.0       0.28979785828041826           0.95295716539057   0.4789085675544829 1.0000   
         H         H         1.0       0.3182642590581666  0.9612558012743747  0.5413443681113649 1.0000   
         H         H         1.0       0.3296773171162931  0.9921780243563905  0.5761211300783808 1.0000   
         H         H         1.0       0.4057226549138735  0.9857716907284573  0.5444020407173782 1.0000   
         H         H         1.0       0.39361142751943207           0.9601183281710982 0.5028376470931901 1.0000   
         C         C         1.0       0.26019772680572756           0.8454047691361039 0.4915759455605781 1.0000   
         C         C         1.0       0.27644899534461514           0.8601277801608016 0.516299041529126  1.0000   
         H         H         1.0       0.2736385285149636  0.8328505832113413  0.4782462415884471 1.0000   
         H         H         1.0       0.2501659408309814  0.8594933713639219  0.4757923280275398 1.0000   
         H         H         1.0       0.2857417463795192  0.8476905067466681  0.532191919444024  1.0000   
         H         H         1.0       0.263531367853204   0.8724369033149847  0.529768570658859  1.0000   
         C         C         1.0       0.251109527669384   0.7655275655394524  0.6911048210901843 1.0000   
         C         C         1.0       0.2216567679993658  0.7692021839234349  0.6879563141075203 1.0000   
         H         H         1.0       0.2578352317399897  0.7852849188201542  0.6891044258128967 1.0000   
         H         H         1.0       0.2582419311497016  0.75922683083049    0.7152646618419406 1.0000   
         H         H         1.0       0.21706389077978352           0.7832412071801601 0.7066053215316719 1.0000   
         H         H         1.0       0.21434913506936612           0.7516109924676231 0.6960826413940291 1.0000   
         C         C         1.0       0.3527818362891536  0.77717252079115    0.49180532134925087          1.0000   
         C         C         1.0       0.34658977332408614           0.779038185548324  0.45687486314550485          1.0000   
         H         H         1.0       0.3517444427091822  0.7962897085666439  0.5017647964496514 1.0000   
         H         H         1.0       0.37285088812183387           0.7717000977766865 0.49347955624278106          1.0000   
         H         H         1.0       0.32592512497318404           0.7806052144580723 0.4567154304461469 1.0000   
         H         H         1.0       0.3530436463624209  0.7621545078995813  0.4439304639016603 1.0000   
         C         C         1.0       0.35372279916660043           0.5250324613891402 0.5670251962919132 1.0000   
         C         C         1.0       0.3684962303470192  0.5453026779581123  0.5512984259920615 1.0000   
         H         H         1.0       0.3349085605802742  0.53116708518176    0.5744473928008507 1.0000   
         H         H         1.0       0.36246915231859617           0.5172599376170709 0.5909981518620467 1.0000   
         H         H         1.0       0.38820410656858384           0.539707102177039  0.5466849347032141 1.0000   
         H         H         1.0       0.35985271215813813           0.5493622859756212 0.5253345937106859 1.0000   
         C         C         1.0       0.26552540771897093           0.016105627755031993         0.39555047443581404          1.0000   
         C         C         1.0       0.2842204671048853  0.5087835326154179  0.37270633211187976          1.0000   
         H         H         1.0       0.26500009367925653           0.9953074839625583 0.3890651933371924 1.0000   
         H         H         1.0       0.2546935553675985  0.5203630899963003  0.34500277238363636          1.0000   
         H         H         1.0       0.2894862204708702  0.5290997948954045  0.3720527373753727 1.0000   
         H         H         1.0       0.2920756582161024  0.5010773035899698  0.3507672806113272 1.0000   
         C         C         1.0       0.14331715698299283           0.719379977554827  0.4778823535763082 1.0000   
         C         C         1.0       0.16039045029080537           0.7109129556876469 0.45121000271205336          1.0000   
         H         H         1.0       0.12466821799028124           0.7230291966846047 0.4664041255931514 1.0000   
         H         H         1.0       0.14155902754778116           0.7044516550900028 0.4933878752869355 1.0000   
         H         H         1.0       0.17921102351849946           0.7060779650441317 0.4556619031243974 1.0000   
         H         H         1.0       0.16246219170021312           0.7263339044539089 0.43554677185867047          1.0000   
         C         C         1.0       0.13541674312151666           0.9607390016217807 0.510749938483809  1.0000   
         C         C         1.0       0.10650223742174532           0.9596801698197421 0.5193543298778839 1.0000   
         H         H         1.0       0.13816452246632746           0.9476869364377949 0.4891761334689344 1.0000   
         H         H         1.0       0.1490680222096025  0.9520844681031482  0.5289636147823025 1.0000   
         H         H         1.0       0.09517016408572512           0.9574156185613826 0.4948641828954912 1.0000   
         H         H         1.0       0.10055766100507875           0.9749656056548359 0.53340426909361   1.0000   
         C         C         1.0       0.20967517599532018           0.643470414340074  0.5226922072441395 1.0000   
         C         C         1.0       0.21842352539401383           0.6666919496312157 0.5042279190070464 1.0000   
         H         H         1.0       0.225083095151473   0.6359216563559011  0.537893397706762  1.0000   
         H         H         1.0       0.19725730803525995           0.6503043299434359 0.5417461660889251 1.0000   
         H         H         1.0       0.20265028872335905           0.6789589534211065 0.500127676585953  1.0000   
         H         H         1.0       0.2234776227997936  0.661025067758297   0.47860963398327744          1.0000   
         C         C         1.0       0.37285242560042287           0.8926911209816744 0.2569583193580739 1.0000   
         C         C         1.0       0.37441649693860785           0.8660353047638643 0.27254241070975976          1.0000   
         H         H         1.0       0.38550385882979865           0.9052556244338911 0.2704861201574756 1.0000   
         H         H         1.0       0.3563142907907085  0.9024571273330333  0.2629925534239569 1.0000   
         H         H         1.0       0.39069933396605966           0.856122484835913  0.26100904475753073          1.0000   
         H         H         1.0       0.3561929646324845  0.8569105624647808  0.2651941341114749 1.0000   
         C         C         1.0       0.12493324942070284           0.8775720109635077 0.7369693490959    1.0000   
         C         C         1.0       0.15054928749640117           0.8672735235835156 0.748948541834897  1.0000   
         H         H         1.0       0.12212135974007056           0.8971504959905564 0.7454107985545667 1.0000   
         H         H         1.0       0.11148843795393798           0.8679555390550973 0.7512744928963693 1.0000   
         H         H         1.0       0.16500010235139384           0.8773792342811233 0.7374160979116601 1.0000   
         H         H         1.0       0.15540344982310542           0.8494149651069586 0.7394896522156345 1.0000   
         C         C         1.0       0.28159804314556813           0.8941797328679881 0.02328641736032746          1.0000   
         C         C         1.0       0.2686705476058484  0.8698224468968847  0.02568026952393472          1.0000   
         H         H         1.0       0.28505705795293973           0.9030784407082216 0.04664109633595429          1.0000   
         H         H         1.0       0.3025370148992148  0.8913153480532026  0.015635530022808743         1.0000   
         H         H         1.0       0.25984501514751607           0.8648712867713975 0.0025643994379973643        1.0000   
         H         H         1.0       0.2526720860607009  0.8721025236024122  0.042297471307512616         1.0000   
         C         C         1.0       0.37451277426969715           0.6439786218875208 0.7629383596143252 1.0000   
         C         C         1.0       0.40071385547700056           0.6329209219987887 0.7745075638016323 1.0000   
         H         H         1.0       0.3707180747576102  0.6639100650759127  0.7718705586158119 1.0000   
         H         H         1.0       0.3607263318700338  0.6331515820696909  0.7720393176115307 1.0000   
         H         H         1.0       0.41469892107090245           0.6479528622759396 0.7707764861239118 1.0000   
         H         H         1.0       0.4055116726923421  0.6166978328418012  0.7597420019176941 1.0000   
         C         C         1.0       0.28654105866170165           0.9975574056996134 0.8271354211292002 1.0000   
         C         C         1.0       0.28794179899949457           0.49903774073362905          0.810176148541528  1.0000   
         H         H         1.0       0.2750823430471791  0.9940557723800312  0.8057925860298163 1.0000   
         H         H         1.0       0.3024847600074234  0.9855051391141683  0.8250482550081881 1.0000   
         H         H         1.0       0.2708096108401648  0.5089440119650269  0.8058122150035092 1.0000   
         H         H         1.0       0.2977449669329571  0.49915064162288175           0.7866860458785622 1.0000   
         C         C         1.0       0.3826393584429671  0.9639489250604123  0.02535733983468624          1.0000   
         C         C         1.0       0.3735336347300925  0.9646531642261112  0.06012260655491018          1.0000   
         H         H         1.0       0.40352275351560934           0.9621113861494586 0.02584391731284711          1.0000   
         H         H         1.0       0.3764046464003285  0.9477622208262921  0.010977278430818607         1.0000   
         H         H         1.0       0.3530488395540618  0.9678860883692373  0.06169178943747892          1.0000   
         H         H         1.0       0.3812479258922797  0.9811783207627895  0.06968699613129749          1.0000   
         C         C         1.0       0.38472698196414046           0.7208685226684944 0.972085066133074  1.0000   
         C         C         1.0       0.3980409353480569  0.6996908043813614  0.9907566818983746 1.0000   
         H         H         1.0       0.3689600098403293  0.7162853812712671  0.9582316014793292 1.0000   
         H         H         1.0       0.3952059351850918  0.7301049476711453  0.9533193735084303 1.0000   
         H         H         1.0       0.3868673115282583  0.6962020296232869  0.01257050488388369          1.0000   
         H         H         1.0       0.4168775098040482  0.7063264646362503  0.9996433763618381 1.0000   
         C         C         1.0       0.13175739326639294           0.5866775408393416 0.2253286201259493 1.0000   
         C         C         1.0       0.12677235921027893           0.6133662628389484 0.23871718738383554          1.0000   
         H         H         1.0       0.11665170642540756           0.5739816626808938 0.2350949222252978 1.0000   
         H         H         1.0       0.15052905804656042           0.578988838789122  0.234780105775293  1.0000   
         H         H         1.0       0.14164034405389467           0.6245163983035976 0.2302918224432113 1.0000   
         H         H         1.0       0.10971253677335083           0.6209749351262465 0.2245263543101544 1.0000   
         C         C         1.0       0.2906868957309007  0.7244862673545328  0.15075297299778517          1.0000   
         C         C         1.0       0.26045033473887375           0.7267681944781893 0.15234389051509634          1.0000   
         H         H         1.0       0.2955540062239606  0.7050688973115132  0.14522704302674486          1.0000   
         H         H         1.0       0.2979370417997607  0.7268326201290469  0.17557630803483376          1.0000   
         H         H         1.0       0.25390336107619665           0.7465736230562451 0.16013199007971576          1.0000   
         H         H         1.0       0.25498870838673804           0.7147857725686018 0.17244192775479827          1.0000   
         C         C         1.0       0.1596527317673542  0.5270932868402238  0.016395588897556473         1.0000   
         C         C         1.0       0.17085685378754992           0.5359695259765327 0.9851331375290152 1.0000   
         H         H         1.0       0.17480045978191638           0.5186998283903619 0.032967038898744486         1.0000   
         H         H         1.0       0.14626391485632456           0.5117614935240481 0.012713103995517607         1.0000   
         H         H         1.0       0.15688846172139054           0.5448725022315742 0.9699260673150257 1.0000   
         H         H         1.0       0.18529098515135076           0.5508171118594928 0.9903969581967709 1.0000   
         C         C         1.0       0.18277206059660292           0.7765840241332674 0.9847765021023858 1.0000   
         C         C         1.0       0.17981554749027692           0.7763150251430782 0.9485526703427143 1.0000   
         H         H         1.0       0.16655530631844673           0.7865062190598112 0.9927991507287723 1.0000   
         H         H         1.0       0.19766835459523985           0.7873218072194059 0.9933679037999182 1.0000   
         H         H         1.0       0.19536028689716287           0.7682130077910787 0.9354890598714668 1.0000   
         H         H         1.0       0.16578960124189956           0.7636613529808265 0.9413048948958658 1.0000   
         C         C         1.0       0.24319476539524745           0.597475611438156  0.9879163807599187 1.0000   
         C         C         1.0       0.2503345275110615  0.5737911882958596  0.0051177759338842934        1.0000   
         H         H         1.0       0.2597876633275763  0.6065014410903098  0.9795816998941186 1.0000   
         H         H         1.0       0.2329473779184679  0.5913864644118417  0.9654918793397109 1.0000   
         H         H         1.0       0.2338959168855904  0.5616091884273968  0.004009661093221456         1.0000   
         H         H         1.0       0.25361034239214075           0.574861868431912  0.03024312500933887          1.0000   
         C         C         1.0       0.976403827953266   0.8857315903612046  0.5703353355819665 1.0000   
         C         C         1.0       0.9897868656744868  0.8613607295908086  0.5776494042483572 1.0000   
         H         H         1.0       0.9773511207377588  0.8892861674196111  0.5448266298566725 1.0000   
         H         H         1.0       0.9870142805590346  0.8998415320998032  0.5845696309851545 1.0000   
         H         H         1.0       0.9797786864731861  0.8520921651302285  0.5975970284982461 1.0000   
         H         H         1.0       0.9863068594125489  0.8479830800295352  0.5569921222180159 1.0000   
         C         C         1.0       0.5243412666628827  0.8504456405262849  0.4420261328919256 1.0000   
         C         C         1.0       0.5083032046725796  0.873577406392037   0.4363062603275436 1.0000   
         H         H         1.0       0.5203321753593951  0.8357223195729342  0.42585776808056797          1.0000   
         H         H         1.0       0.5181738601358986  0.8428485255875691  0.46495130723443473          1.0000   
         H         H         1.0       0.516347452759769   0.8838088068253147  0.4151644035826786 1.0000   
         H         H         1.0       0.5099259889018835  0.8866271152397754  0.4562153066364814 1.0000   
         C         C         1.0       0.7605745811806682  0.8795921607868729  0.4973531453776169 1.0000   
         C         C         1.0       0.7449175775704999  0.90352211402915    0.4938348908836233 1.0000   
         H         H         1.0       0.7677081229866854  0.8777941999087043  0.5222503908310253 1.0000   
         H         H         1.0       0.7773643043226056  0.8803379434742612  0.48351858982867096          1.0000   
         H         H         1.0       0.7440533987477947  0.9105103088923079  0.4686869883582731 1.0000   
         H         H         1.0       0.7243676989774582  0.8998413348226657  0.4959158662452361 1.0000   
         C         C         1.0       0.4819590139899123  0.6519400305694437  0.573931729061021  1.0000   
         C         C         1.0       0.4965260352459731  0.6264263317054879  0.5758151605309096 1.0000   
         H         H         1.0       0.4790259016950456  0.6581904890085177  0.5495787481021899 1.0000   
         H         H         1.0       0.49287980537041876           0.6661380416197688 0.5869163822487274 1.0000   
         H         H         1.0       0.4847880134281875  0.6123783095302497  0.5877241952376461 1.0000   
         H         H         1.0       0.4976746472023687  0.6161595969072196  0.5519305960623547 1.0000   
         C         C         1.0       0.7207537362224974  0.5174302207955075  0.7168496120398414 1.0000   
         C         C         1.0       0.7351377666190203  0.9897327174032704  0.7038579148491182 1.0000   
         H         H         1.0       0.7343479454252007  0.5316181019255402  0.724642435472862  1.0000   
         H         H         1.0       0.7072509263907633  0.5139633031535071  0.7365827758657394 1.0000   
         H         H         1.0       0.7182387613156564  0.9781279947588972  0.6989383859779623 1.0000   
         H         H         1.0       0.7432177519630708  0.9791789374323537  0.7240198063525007 1.0000   
         C         C         1.0       0.6541389022003142  0.9671157405011696  0.5280072417596203 1.0000   
         C         C         1.0       0.6647892822836419  0.9683673988479461  0.49327110613218794          1.0000   
         H         H         1.0       0.6615714270513388  0.9520965521336595  0.5431743400871226 1.0000   
         H         H         1.0       0.6333347130406747  0.9623877831892268  0.5288854951937468 1.0000   
         H         H         1.0       0.6860172504459359  0.9692682198531614  0.495500102470265  1.0000   
         H         H         1.0       0.6613481371578973  0.9857847634862534  0.48097996438892915          1.0000   
         C         C         1.0       0.6698060773358545  0.7093350090054531  0.5371515941891631 1.0000   
         C         C         1.0       0.6416551346014634  0.7109312000198422  0.547338987779891  1.0000   
         H         H         1.0       0.673121773937705   0.6916997163405951  0.5224706843537018 1.0000   
         H         H         1.0       0.6832772038817667  0.7061463427371996  0.5564543823070986 1.0000   
         H         H         1.0       0.6369102673348801  0.7290594870779215  0.5606548449194362 1.0000   
         H         H         1.0       0.6287386544892585  0.7123750343339645  0.5245545191051567 1.0000   
         C         C         1.0       0.9965674728207811  0.637106233636771   0.43095011333235445          1.0000   
         C         C         1.0       0.005360336397308707          0.6314986609913    0.3957975197613117 1.0000   
         H         H         1.0       0.003121354466463444          0.656300125222026  0.43929350052764393          1.0000   
         H         H         1.0       0.005676729793551605          0.623188053253529  0.4472079587923077 1.0000   
         H         H         1.0       0.9960827642816984  0.6142857515626393  0.38566299923144814          1.0000   
         H         H         1.0       0.9976615927349097  0.6473050305263846  0.3810645145874579 1.0000   
         C         C         1.0       0.7712496464610148  0.7293057561361053  0.3550916538499242 1.0000   
         C         C         1.0       0.7430082854362976  0.7360271762853986  0.35631247760672685          1.0000   
         H         H         1.0       0.7756775259057958  0.7195508686193337  0.3322073216402249 1.0000   
         H         H         1.0       0.7811628273295491  0.7468404158042675  0.3529188546737744 1.0000   
         H         H         1.0       0.7345477119764835  0.7174911272792676  0.35214004700214696          1.0000   
         H         H         1.0       0.7365693039778689  0.7459506114426483  0.33501355336505456          1.0000   
         C         C         1.0       0.8605968177483647  0.5394790870710305  0.518859225503829  1.0000   
         C         C         1.0       0.8390367698304257  0.5513825886895595  0.5383858661266635 1.0000   
         H         H         1.0       0.8534504660722719  0.5226392116563093  0.5087029433353472 1.0000   
         H         H         1.0       0.8765033577059506  0.5343199903738732  0.5360367585183913 1.0000   
         H         H         1.0       0.846959582945007   0.5653919838788202  0.5555188277991585 1.0000   
         H         H         1.0       0.8247779739394565  0.5608529705398183  0.5217938229046086 1.0000   
         C         C         1.0       0.8231233793829108  0.7733541460538487  0.5663226043039532 1.0000   
         C         C         1.0       0.8426592979948657  0.7893548919266082  0.5533341967784255 1.0000   
         H         H         1.0       0.8049530470700507  0.7837375013805101  0.5688792448010885 1.0000   
         H         H         1.0       0.8288019270174035  0.7696620892736303  0.589794335236615  1.0000   
         H         H         1.0       0.8607838356656998  0.779576953314992   0.5501695842364868 1.0000   
         H         H         1.0       0.8382989673062184  0.7943154584046926  0.5274820615807292 1.0000   
         C         C         1.0       0.7406644037943634  0.6284029305605112  0.5465442606957727 1.0000   
         C         C         1.0       0.7395250503244909  0.6052824346980971  0.524770064791844  1.0000   
         H         H         1.0       0.7456684087791632  0.623956521025527   0.5727497120015757 1.0000   
         H         H         1.0       0.7219722500220476  0.6356237938238206  0.5488529315312219 1.0000   
         H         H         1.0       0.7573936250115436  0.595693332402778   0.5210251755087556 1.0000   
         H         H         1.0       0.7340553867255332  0.6103996599506938  0.5002744541677276 1.0000   
         C         C         1.0       0.5231042190838205  0.898256792403983   0.10724176259392675          1.0000   
         C         C         1.0       0.5111964673393988  0.873096087390442   0.11523282113368474          1.0000   
         H         H         1.0       0.5138265690691691  0.9115207726565692  0.12165642031724602          1.0000   
         H         H         1.0       0.5173411610112317  0.9033085459722041  0.08274992431676101          1.0000   
         H         H         1.0       0.5182670336177289  0.866325270956619   0.13792519318588223          1.0000   
         H         H         1.0       0.5164414571568318  0.8583521295721542  0.09973117033382543          1.0000   
         C         C         1.0       0.6512990305805407  0.8650717542669746  0.2716128431172007 1.0000   
         C         C         1.0       0.6500722058185187  0.8908604156091705  0.28691353648264467          1.0000   
         H         H         1.0       0.6351019225430191  0.8543965839556446  0.2835532811723857 1.0000   
         H         H         1.0       0.6693930288362941  0.854445027126508   0.27487373482901484          1.0000   
         H         H         1.0       0.6343824712512176  0.9004916018585001  0.277830128331009  1.0000   
         H         H         1.0       0.6649131521471172  0.9019065369582776  0.27750801995965435          1.0000   
         C         C         1.0       0.035253523409703336          0.8593758253680468 0.927375139305752  1.0000   
         C         C         1.0       0.048540247196754545          0.8838410783795846 0.932408327321298  1.0000   
         H         H         1.0       0.03867438803780738           0.8492112436810334 0.9487605038129628 1.0000   
         H         H         1.0       0.041427113763760584          0.8479405800588764 0.9065370610926032 1.0000   
         H         H         1.0       0.0391841649029513  0.9004299000832662  0.9213068665647259 1.0000   
         H         H         1.0       0.047093418448902524          0.8880105860393024 0.9581583895390401 1.0000   
         C         C         1.0       0.8996583359753756  0.8784715361288455  0.7706849635941724 1.0000   
         C         C         1.0       0.8716073698756542  0.8818955845617787  0.7611634888078666 1.0000   
         H         H         1.0       0.9099420053173862  0.8952208127100425  0.7649701139786244 1.0000   
         H         H         1.0       0.9083080131016927  0.8633628555031038  0.757662345747643  1.0000   
         H         H         1.0       0.8607467740442923  0.8654409814023313  0.7673666635964911 1.0000   
         H         H         1.0       0.8602532474128062  0.8970759472645512  0.7687669895516965 1.0000   
         C         C         1.0       0.7961594786488496  0.8756218797911751  0.05252662750287076          1.0000   
         C         C         1.0       0.781577183767003   0.894924278928634   0.03294045550273659          1.0000   
         H         H         1.0       0.7830202036165044  0.8670486802954811  0.06760595448059657          1.0000   
         H         H         1.0       0.8098391229114833  0.88774030800911    0.06573243259743082          1.0000   
         H         H         1.0       0.7943497311238361  0.9091134976173357  0.023155741432002497         1.0000   
         H         H         1.0       0.7718584866829403  0.8851714978445707  0.011986856213525243         1.0000   
         C         C         1.0       0.528307026580699   0.6285267544021466  0.9661042356838909 1.0000   
         C         C         1.0       0.516009389497569   0.6017615653433658  0.9603864415590492 1.0000   
         H         H         1.0       0.5252908782608614  0.6340529460773809  0.9932052543731543 1.0000   
         H         H         1.0       0.5186627888303588  0.6419794535824898  0.9508067520825538 1.0000   
         H         H         1.0       0.5280542724225783  0.5935594555777225  0.9427002839188181 1.0000   
         H         H         1.0       0.5164320132032645  0.5884555310992396  0.980049888192735  1.0000   
         C         C         1.0       0.6094552101097214  0.6446611059332072  0.7704343719566609 1.0000   
         C         C         1.0       0.6301702381727146  0.6608836200110486  0.7854239405401496 1.0000   
         H         H         1.0       0.5909608115440982  0.6482943369791379  0.7807263497987662 1.0000   
         H         H         1.0       0.6118975036836208  0.6261709950503571  0.7797463618059047 1.0000   
         H         H         1.0       0.6490147877763087  0.6576312071614175  0.7765799211546227 1.0000   
         H         H         1.0       0.6261723573303781  0.6801064237898874  0.7780391135938813 1.0000   
         C         C         1.0       0.7762678009102144  0.7471745650014037  0.8540709592519757 1.0000   
         C         C         1.0       0.788116616085996   0.7733054180255521  0.8500434199172124 1.0000   
         H         H         1.0       0.764827902758274   0.7427281697325739  0.8329579232732501 1.0000   
         H         H         1.0       0.7902579675224688  0.7321577977936103  0.8567319893210268 1.0000   
         H         H         1.0       0.7735491503987478  0.7879073515572528  0.8430229943311895 1.0000   
         H         H         1.0       0.7995953433606151  0.7717290935247098  0.8278484069834069 1.0000   
         C         C         1.0       0.6429967499150187  0.5338324559407288  0.9925489411233138 1.0000   
         C         C         1.0       0.663989465134408   0.5437519715002871  0.9711965634939027 1.0000   
         H         H         1.0       0.6350826201530658  0.5479487850619694  0.00638430287342662          1.0000   
         H         H         1.0       0.6273449152371562  0.5273986784330141  0.9768134712721344 1.0000   
         H         H         1.0       0.6668048651572712  0.5301467006529014  0.9513197358298167 1.0000   
         H         H         1.0       0.6819408143831753  0.5455119305166076  0.9859944729993616 1.0000   
         C         C         1.0       0.6903141512048387  0.8061868093399908  0.035599346675093214         1.0000   
         C         C         1.0       0.6749609129932754  0.7969787420064263  0.06371909493107367          1.0000   
         H         H         1.0       0.7089410987105489  0.8152309889413974  0.04410028357245969          1.0000   
         H         H         1.0       0.6789085739937655  0.819235751955579   0.022508406225194347         1.0000   
         H         H         1.0       0.6591499553333253  0.787221617863654   0.054344743238257213         1.0000   
         H         H         1.0       0.6847073160470116  0.7827455128310931  0.0792501544352363 1.0000   
         C         C         1.0       0.9963871197154549  0.6129702215151913  0.07980746716713999          1.0000   
         C         C         1.0       0.01164144127387844           0.6376498078848877 0.08446558764803183          1.0000   
         H         H         1.0       0.004364824888245501          0.5978494862432235 0.09508970774085053          1.0000   
         H         H         1.0       0.9990194878909884  0.6046319469061351  0.055597939165462566         1.0000   
         H         H         1.0       0.004865265520617612          0.6469299415959741 0.10569738382520066          1.0000   
         H         H         1.0       0.006739730827649659          0.6517792692679535 0.06679057903896972          1.0000   
         C         C         1.0       0.8806249611429511  0.616349378425813   0.2885320956409048 1.0000   
         C         C         1.0       0.8949444966683837  0.6356541202152766  0.27112103644933194          1.0000   
         H         H         1.0       0.861266448134719   0.6157069965803784  0.27937146014254993          1.0000   
         H         H         1.0       0.8876007789601201  0.5987912171065015  0.28053527152235175          1.0000   
         H         H         1.0       0.9143324868366748  0.6330000691292287  0.2808203824383809 1.0000   
         H         H         1.0       0.8900373258566281  0.6544620275839712  0.27951723733122846          1.0000   
         C         C         1.0       0.8137553941482697  0.9577479045711508  0.16394282204506763          1.0000   
         C         C         1.0       0.7921252030603164  0.9653071835366481  0.18581472764296755          1.0000   
         H         H         1.0       0.8057276743088675  0.9403424888540587  0.15191998488982833          1.0000   
         H         H         1.0       0.8299354092379838  0.9514182499999903  0.17829900190548406          1.0000   
         H         H         1.0       0.7950069912866549  0.9845944882551861  0.19384573797079246          1.0000   
         H         H         1.0       0.7935739917584759  0.9535213768599484  0.20880836669477618          1.0000   
         C         C         1.0       0.9129303011965554  0.9616249989413941  0.9936757017198696 1.0000   
         C         C         1.0       0.8868378267268393  0.9715161247951464  0.9880950527007091 1.0000   
         H         H         1.0       0.9174864459437828  0.9564586640451068  0.018850267744424415         1.0000   
         H         H         1.0       0.9252230931966645  0.9762280482952902  0.9876392237295051 1.0000   
         H         H         1.0       0.8736065883712874  0.9563699071102195  0.9923487982890022 1.0000   
         H         H         1.0       0.8830153904778112  0.9756326294772747  0.9639261630192594 1.0000   
         C         C         1.0       0.8670324958283406  0.7277922477960733  0.08673051225116012          1.0000   
         C         C         1.0       0.884526566329171   0.7319234829187331  0.05850932511946042          1.0000   
         H         H         1.0       0.8495560041718113  0.7286179487295597  0.07538590241400854          1.0000   
         H         H         1.0       0.8678753350473601  0.7443146668100274  0.10356462696564589          1.0000   
         H         H         1.0       0.8896043879019927  0.7134274506164484  0.049488447869764605         1.0000   
         H         H         1.0       0.9021653117526265  0.7382994095312847  0.06917832256431403          1.0000   
         C         C         1.0       0.7541065904259795  0.6127911353428463  0.023258917628613054         1.0000   
         C         C         1.0       0.7621194013819422  0.6373095090866406  0.04004491474603643          1.0000   
         H         H         1.0       0.7342948343527953  0.6088192396908135  0.02987551492681588          1.0000   
         H         H         1.0       0.7550864191640292  0.6155495354247571  0.9975999105591696 1.0000   
         H         H         1.0       0.7835649727305768  0.6377599667218583  0.0394969451083207 1.0000   
         H         H         1.0       0.7590350392944041  0.6356053042365752  0.06554404599006824          1.0000

